scripts/grids/Texas2k_case1_2016summerpeak_corrected.m
%% MATPOWER Case Format : Version 2
function mpc = Texas2k_series24_case1_2016summerPeak_adapt
mpc.version = '2';

%%-----  Power Flow Data  -----%%
%% system MVA base
mpc.baseMVA = 100.0;
%% bus data
%    bus_i    type    Pd    Qd    Gs    Bs    area    Vm    Va    baseKV    zone    Vmax    Vmin
mpc.bus = [
	1001	1	20.78	5.89	0.0	0.0	1	0.9879869	-27.028888	115.0	9	1.1	0.9	18.66	-0.0	0.0	0.0
	1002	1	15.410000000000002	4.37	0.0	0.0	1	1.0228016	-21.724051	115.0	9	1.1	0.9	18.66	0.0	0.0	0.0
	1003	1	0.0	0.0	0.0	0.0	1	1.0127939	-24.419337000000002	115.0	9	1.1	0.9	18.66	-0.0	0.0	0.0
	1004	2	0.0	0.0	0.0	0.0	1	1.0191599	-25.99367	230.0	9	1.1	0.9	18.66	-0.0	0.0	0.0
	1005	1	0.0	0.0	0.0	0.0	1	1.0107155	-20.532086	115.0	9	1.1	0.9	18.66	-0.0	0.0	0.0
	1006	2	0.0	0.0	0.0	0.0	1	1.0043101	-18.378849	13.8	9	1.1	0.9	18.66	-0.0	0.0	0.0
	1007	1	7.01	1.9900000000000002	0.0	0.16	1	1.03	-22.183263	115.0	9	1.1	0.9	18.66	0.0	0.0	0.0
	1008	1	0.0	0.0	0.0	0.0	1	1.0250323	-11.873061	115.0	9	1.1	0.9	18.66	-0.0	0.0	0.0
	1009	2	0.0	0.0	0.0	0.0	1	1.015064	-8.614772	13.8	9	1.1	0.9	18.66	-0.0	0.0	0.0
	1010	1	0.0	0.0	0.0	-2.12	1	1.03	-20.424029	115.0	9	1.1	0.9	18.66	0.0	0.0	0.0
	1011	2	0.0	0.0	0.0	0.0	1	1.0302178	-18.671067	22.0	9	1.1	0.9	18.66	-0.0	0.0	0.0
	1012	1	2.99	0.8500000000000001	0.0	9.5	1	1.0227089	-27.342484	115.0	9	1.1	0.9	18.66	-0.0	0.0	0.0
	1013	1	29.23	8.28	0.0	0.0	1	1.00914	-19.327769	115.0	9	1.1	0.9	18.66	-0.0	0.0	0.0
	1014	1	2.22	0.63	0.0	0.0	1	1.0155621	-15.631201999999998	115.0	9	1.1	0.9	18.66	-0.0	0.0	0.0
	1015	1	7.51	2.13	0.0	0.0	1	1.031932	-21.870218	115.0	9	1.1	0.9	18.66	0.0	0.0	0.0
	1016	1	2.89	0.8199999999999998	0.0	30.0	1	1.0190257	-19.669285	115.0	9	1.1	0.9	18.66	0.0	0.0	0.0
	1017	1	18.34	5.2	0.0	0.0	1	0.9874717	-25.62835	115.0	9	1.1	0.9	18.66	-0.0	0.0	0.0
	1018	1	0.07	0.02	0.0	0.0	1	0.9947723	-24.342385	115.0	9	1.1	0.9	18.66	-0.0	0.0	0.0
	1019	1	61.78	17.5	0.0	142.98	1	1.0078981	-26.618369	115.0	9	1.1	0.9	18.66	0.0	0.0	0.0
	1020	1	0.0	0.0	0.0	76.73	1	1.0275954	-19.654093	115.0	9	1.1	0.9	18.66	-0.0	0.0	0.0
	1021	2	0.0	0.0	0.0	0.0	1	1.0033711	-13.091942	13.8	9	1.1	0.9	18.66	-0.0	0.0	0.0
	1022	1	0.0	0.0	0.0	0.0	1	1.0149933	-23.693132	115.0	9	1.1	0.9	18.66	-0.0	0.0	0.0
	1023	2	0.0	0.0	0.0	0.0	1	1.01	-14.804833	13.8	9	1.1	0.9	18.66	0.0	0.0	0.0
	1024	1	63.04	17.86	0.0	0.0	1	0.9962492	-23.286901	115.0	9	1.1	0.9	18.66	-0.0	0.0	0.0
	1025	1	0.0	0.0	0.0	0.0	1	1.0223351	-18.608299	115.0	9	1.1	0.9	18.66	-0.0	0.0	0.0
	1026	2	0.0	0.0	0.0	0.0	1	1.0	-9.12816	13.8	9	1.1	0.9	18.66	0.0	0.0	0.0
	1027	1	101.21	28.68	0.0	75.0	1	1.015789	-30.27056	115.0	9	1.1	0.9	18.66	0.0	0.0	0.0
	1028	1	10.01	2.84	0.0	0.0	1	1.0174343	-25.555834	115.0	9	1.1	0.9	18.66	-0.0	0.0	0.0
	1029	1	83.18	23.57	0.0	40.0	1	1.0108912	-29.250108	115.0	9	1.1	0.9	18.66	0.0	0.0	0.0
	1030	1	24.63	6.98	0.0	0.0	1	1.0182254	-16.923726	115.0	9	1.1	0.9	18.66	-0.0	0.0	0.0
	1031	1	9.25	2.62	0.0	0.0	1	1.019004	-21.470777	115.0	9	1.1	0.9	18.66	-0.0	0.0	0.0
	1032	1	0.0	0.0	0.0	0.0	1	1.0075587	-15.704379	115.0	9	1.1	0.9	18.66	-0.0	0.0	0.0
	1033	2	0.0	0.0	0.0	50.0	1	1.0283928	-20.234456	230.0	9	1.1	0.9	18.66	-0.0	0.0	0.0
	1034	1	0.0	0.0	0.0	0.0	1	1.0066511	-18.665372	115.0	9	1.1	0.9	18.66	-0.0	0.0	0.0
	1035	2	0.0	0.0	0.0	0.0	1	1.0	-15.376151	13.8	9	1.1	0.9	18.66	0.0	0.0	0.0
	1036	1	13.600000000000001	3.85	0.0	0.0	1	1.0011162	-16.085111	115.0	9	1.1	0.9	18.66	-0.0	0.0	0.0
	1037	1	102.24	28.970000000000002	0.0	0.0	1	0.9814857	-26.780331	115.0	9	1.1	0.9	18.66	-0.0	0.0	0.0
	1038	1	0.0	0.0	0.0	0.0	1	1.0202992	-11.075006	115.0	9	1.1	0.9	18.66	-0.0	0.0	0.0
	1039	2	0.0	0.0	0.0	0.0	1	1.0	-5.706264	22.0	9	1.1	0.9	18.66	0.0	0.0	0.0
	1040	1	44.36	12.57	0.0	0.0	1	0.9972722	-24.620749	115.0	9	1.1	0.9	18.66	-0.0	0.0	0.0
	1041	1	0.0	0.0	0.0	0.0	1	1.0051151	-19.550961	115.0	9	1.1	0.9	18.66	-0.0	0.0	0.0
	1042	1	0.0	0.0	0.0	0.0	1	1.0051151	-19.550961	13.8	9	1.1	0.9	18.66	-0.0	0.0	0.0
	1043	2	0.0	0.0	0.0	0.0	1	1.0	-16.313968	13.8	9	1.1	0.9	18.66	0.0	0.0	0.0
	1044	1	14.679999999999998	4.16	0.0	0.0	1	1.0160541	-30.223109	115.0	9	1.1	0.9	18.66	-0.0	0.0	0.0
	1045	1	98.56	27.93	0.0	0.0	1	0.9863398	-28.746488	115.0	9	1.1	0.9	18.66	-0.0	0.0	0.0
	1046	1	11.08	3.1400000000000006	0.0	12.0	1	1.028382	-25.402651	115.0	9	1.1	0.9	18.66	-0.0	0.0	0.0
	1047	1	0.0	0.0	0.0	0.0	1	1.0080761	-17.259792000000004	115.0	9	1.1	0.9	18.66	-0.0	0.0	0.0
	1048	1	0.0	0.0	0.0	0.0	1	1.0080761	-17.259792000000004	18.0	9	1.1	0.9	18.66	-0.0	0.0	0.0
	1049	1	0.0	0.0	0.0	0.0	1	1.0080761	-17.259792000000004	18.0	9	1.1	0.9	18.66	-0.0	0.0	0.0
	1050	2	0.0	0.0	0.0	0.0	1	1.0	-12.189549	18.0	9	1.1	0.9	18.66	0.0	0.0	0.0
	1051	2	0.0	0.0	0.0	0.0	1	1.0	-10.710216000000003	18.0	9	1.1	0.9	18.66	0.0	0.0	0.0
	1052	2	0.0	0.0	0.0	0.0	1	1.0004415	-13.040015	18.0	9	1.1	0.9	18.66	-0.0	0.0	0.0
	1053	1	0.0	0.0	0.0	0.0	1	1.0255978	-21.144074	230.0	9	1.1	0.9	18.66	-0.0	0.0	0.0
	1054	1	14.99	4.25	0.0	0.0	1	1.0139648	-27.410786000000005	115.0	9	1.1	0.9	18.66	-0.0	0.0	0.0
	1055	1	3.9800000000000004	1.13	0.0	0.0	1	1.0060545	-25.239817	115.0	9	1.1	0.9	18.66	-0.0	0.0	0.0
	1056	1	0.0	0.0	0.0	67.82	1	1.03	-26.436619000000004	115.0	9	1.1	0.9	18.66	0.0	0.0	0.0
	1057	1	0.0	0.0	0.0	0.0	1	1.03	-26.436619000000004	18.0	9	1.1	0.9	18.66	0.0	0.0	0.0
	1058	1	13.459999999999999	3.81	0.0	0.0	1	1.0262987	-14.33782	115.0	9	1.1	0.9	18.66	-0.0	0.0	0.0
	1059	1	0.0	0.0	0.0	0.0	1	1.0262987	-14.33782	22.0	9	1.1	0.9	18.66	-0.0	0.0	0.0
	1060	1	0.0	0.0	0.0	0.0	1	1.0262987	-14.33782	22.0	9	1.1	0.9	18.66	-0.0	0.0	0.0
	1061	1	0.0	0.0	0.0	0.0	1	1.0125285	-21.689421	115.0	9	1.1	0.9	18.66	-0.0	0.0	0.0
	1062	1	0.0	0.0	0.0	0.0	1	1.0125285	-21.689421	13.8	9	1.1	0.9	18.66	-0.0	0.0	0.0
	1063	1	0.0	0.0	0.0	0.0	1	1.0125285	-21.689421	13.8	9	1.1	0.9	18.66	-0.0	0.0	0.0
	1064	1	123.76	35.07	0.0	0.0	1	0.9807636	-28.43374	115.0	9	1.1	0.9	18.66	-0.0	0.0	0.0
	1065	1	0.0	0.0	0.0	0.0	1	1.007949	-19.410666	115.0	9	1.1	0.9	18.66	-0.0	0.0	0.0
	1066	2	0.0	0.0	0.0	0.0	1	1.0	-11.896117	13.8	9	1.1	0.9	18.66	0.0	0.0	0.0
	1067	1	101.55000000000001	28.77	0.0	0.0	1	1.0021318	-20.10052	115.0	9	1.1	0.9	18.66	-0.0	0.0	0.0
	1068	1	59.4	16.83	0.0	0.0	1	0.9875155	-20.385443	115.0	9	1.1	0.9	18.66	-0.0	0.0	0.0
	1069	1	0.0	0.0	0.0	0.0	1	1.0278268	-11.940303	115.0	9	1.1	0.9	18.66	-0.0	0.0	0.0
	1070	2	0.0	0.0	0.0	0.0	1	1.04	-7.447125000000001	13.8	9	1.1	0.9	18.66	0.0	0.0	0.0
	1071	1	91.46	25.91	0.0	0.0	1	0.9954203	-25.780791	115.0	9	1.1	0.9	18.66	0.0	0.0	0.0
	1072	2	0.0	0.0	0.0	0.0	1	1.01	-16.439726	18.0	9	1.1	0.9	18.66	0.0	0.0	0.0
	1073	2	0.0	0.0	0.0	0.0	1	1.01	-10.062363	18.0	9	1.1	0.9	18.66	0.0	0.0	0.0
	1074	2	0.0	0.0	0.0	0.0	1	1.01	-12.100634	18.0	9	1.1	0.9	18.66	0.0	0.0	0.0
	1075	2	0.0	0.0	0.0	0.0	1	1.01	-14.856442000000001	18.0	9	1.1	0.9	18.66	0.0	0.0	0.0
	1076	1	0.0	0.0	0.0	0.0	1	0.9954203	-25.780791	18.0	9	1.1	0.9	18.66	0.0	0.0	0.0
	1077	1	0.0	0.0	0.0	0.0	1	0.9954203	-25.780791	18.0	9	1.1	0.9	18.66	0.0	0.0	0.0
	1078	2	0.0	0.0	0.0	0.0	1	1.01	-15.377262000000002	18.0	9	1.1	0.9	18.66	0.0	0.0	0.0
	1079	2	0.0	0.0	0.0	0.0	1	1.0432981	-42.784342	500.0	9	1.1	0.9	18.66	0.0	0.0	0.0
	1080	2	0.0	0.0	0.0	0.0	1	1.01	-14.788937	18.0	9	1.1	0.9	18.66	0.0	0.0	0.0
	1081	1	0.0	0.0	0.0	67.43	1	1.03	-22.463135	230.0	9	1.1	0.9	18.66	0.0	0.0	0.0
	1082	2	0.0	0.0	0.0	0.0	1	1.023691	-9.280747	115.0	9	1.1	0.9	18.66	-0.0	0.0	0.0
	1083	1	39.95	11.32	0.0	26.150000000000002	1	1.0227288	-13.374476	115.0	9	1.1	0.9	18.66	-0.0	0.0	0.0
	1084	2	0.0	0.0	0.0	0.0	1	1.0304041	-20.870535	115.0	9	1.1	0.9	18.66	-0.0	0.0	0.0
	1085	1	21.3	6.03	0.0	0.0	1	1.0111106	-19.280974	115.0	9	1.1	0.9	18.66	-0.0	0.0	0.0
	1086	1	39.67	11.24	0.0	30.0	1	1.0181627	-21.491245	115.0	9	1.1	0.9	18.66	0.0	0.0	0.0
	1087	1	0.91	0.26	0.0	9.36	1	1.03	-19.031253	115.0	9	1.1	0.9	18.66	0.0	0.0	0.0
	1088	2	0.0	0.0	0.0	0.0	1	1.0	-15.575647	115.0	9	1.1	0.9	18.66	0.0	0.0	0.0
	1089	1	40.6	11.5	0.0	0.0	1	0.9879565	-27.672163	115.0	9	1.1	0.9	18.66	-0.0	0.0	0.0
	1090	2	0.0	0.0	0.0	0.0	1	1.02	-20.18883	115.0	9	1.1	0.9	18.66	0.0	0.0	0.0
	1091	1	11.62	3.29	0.0	0.0	1	1.0289178	-40.31255300000001	161.0	9	1.1	0.9	18.66	-0.0	0.0	0.0
	2001	1	48.36	13.699999999999998	0.0	0.0	2	1.0063446	-61.119679000000005	161.0	11	1.1	0.9	18.66	-0.0	0.0	0.0
	2002	1	0.0	0.0	0.0	0.0	2	1.0165446	-62.22670200000001	500.0	11	1.1	0.9	18.66	-0.0	0.0	0.0
	2003	1	0.0	0.0	0.0	0.0	2	1.0154076	-64.426304	161.0	11	1.1	0.9	18.66	-0.0	0.0	0.0
	2004	1	0.0	0.0	0.0	0.0	2	1.0165446	-62.22670200000001	13.8	11	1.1	0.9	18.66	-0.0	0.0	0.0
	2005	1	0.0	0.0	0.0	0.0	2	1.0165446	-62.22670200000001	13.8	11	1.1	0.9	18.66	-0.0	0.0	0.0
	2006	1	0.0	0.0	0.0	0.0	2	1.0165446	-62.22670200000001	13.8	11	1.1	0.9	18.66	-0.0	0.0	0.0
	2007	1	9.54	2.7	0.0	0.0	2	1.0075328	-60.863955	161.0	11	1.1	0.9	18.66	-0.0	0.0	0.0
	2008	1	8.06	2.28	0.0	0.0	2	1.019682	-41.302178	161.0	10	1.1	0.9	18.66	-0.0	0.0	0.0
	2009	1	39.14	11.09	0.0	106.23	2	1.03	-50.671617	161.0	11	1.1	0.9	18.66	0.0	0.0	0.0
	2010	1	56.81	16.09	0.0	29.37	2	1.03	-42.994326	161.0	10	1.1	0.9	18.66	0.0	0.0	0.0
	2011	1	0.0	0.0	0.0	0.0	2	1.041298	-39.95441	500.0	10	1.1	0.9	18.66	-0.0	0.0	0.0
	2012	1	0.0	0.0	0.0	0.0	2	1.0304518	-37.959144	161.0	10	1.1	0.9	18.66	-0.0	0.0	0.0
	2013	2	0.0	0.0	0.0	0.0	2	1.0329618	-37.625462	18.0	10	1.1	0.9	18.66	-0.0	0.0	0.0
	2014	1	25.429999999999996	7.200000000000001	0.0	0.0	2	1.0183281	-42.106502	161.0	10	1.1	0.9	18.66	-0.0	0.0	0.0
	2015	1	4.69	1.33	0.0	0.0	2	1.0166787	-64.477567	161.0	11	1.1	0.9	18.66	-0.0	0.0	0.0
	2016	1	69.27	19.63	0.0	0.0	2	1.0153029	-70.265696	161.0	11	1.1	0.9	18.66	0.0	0.0	0.0
	2017	1	0.0	0.0	0.0	-200.0	2	1.0333096	-41.116245	500.0	10	1.1	0.9	18.66	-0.0	0.0	0.0
	2018	1	0.0	0.0	0.0	0.0	2	1.0300567	-40.070391	161.0	10	1.1	0.9	18.66	-0.0	0.0	0.0
	2019	1	0.0	0.0	0.0	0.0	2	1.0333096	-41.116245	20.0	10	1.1	0.9	18.66	-0.0	0.0	0.0
	2020	1	47.97	13.59	0.0	0.0	2	1.0085925	-50.361954000000004	161.0	11	1.1	0.9	18.66	-0.0	0.0	0.0
	2021	1	0.0	0.0	0.0	0.0	2	1.0179498	-57.94324600000001	500.0	11	1.1	0.9	18.66	-0.0	0.0	0.0
	2022	1	11.56	3.2799999999999994	0.0	0.0	2	1.0144047	-59.80521199999999	161.0	11	1.1	0.9	18.66	-0.0	0.0	0.0
	2023	2	0.0	0.0	0.0	0.0	2	1.02	-56.37864400000001	13.8	11	1.1	0.9	18.66	0.0	0.0	0.0
	2024	2	0.0	0.0	0.0	0.0	2	1.02	-55.714238	13.8	11	1.1	0.9	18.66	0.0	0.0	0.0
	2025	1	39.62	11.23	0.0	0.0	2	1.0065849	-49.673167	161.0	11	1.1	0.9	18.66	-0.0	0.0	0.0
	2026	1	18.57	5.26	0.0	0.0	2	1.029513	-38.988721	161.0	10	1.1	0.9	18.66	-0.0	0.0	0.0
	2027	1	3.55	1.01	0.0	0.0	2	1.0069461	-61.526367	161.0	11	1.1	0.9	18.66	-0.0	0.0	0.0
	2028	1	14.24	4.03	0.0	0.0	2	1.0087464	-52.262982	161.0	11	1.1	0.9	18.66	-0.0	0.0	0.0
	2029	1	3.2	0.91	0.0	0.0	2	1.0240521	-41.668255	161.0	10	1.1	0.9	18.66	-0.0	0.0	0.0
	2030	1	47.15	13.36	0.0	0.0	2	0.9943555	-64.841957	161.0	11	1.1	0.9	18.66	-0.0	0.0	0.0
	2031	1	5.77	1.63	0.0	0.0	2	1.0249727	-36.896064	161.0	10	1.1	0.9	18.66	-0.0	0.0	0.0
	2032	1	3.35	0.95	0.0	0.0	2	1.0094434	-60.295276	161.0	11	1.1	0.9	18.66	-0.0	0.0	0.0
	2033	1	13.570000000000002	3.85	0.0	0.0	2	0.9970076	-66.189414	161.0	11	1.1	0.9	18.66	-0.0	0.0	0.0
	2034	1	5.34	1.51	0.0	0.0	2	1.0130628	-69.668943	161.0	11	1.1	0.9	18.66	-0.0	0.0	0.0
	2035	1	4.68	1.33	0.0	0.0	2	1.0223479	-36.804766	161.0	10	1.1	0.9	18.66	-0.0	0.0	0.0
	2036	1	41.59	11.78	0.0	0.0	2	1.0112051	-50.053434	161.0	11	1.1	0.9	18.66	-0.0	0.0	0.0
	2037	1	3.5000000000000004	0.9899999999999999	0.0	0.0	2	1.0269166	-64.731157	161.0	11	1.1	0.9	18.66	-0.0	0.0	0.0
	2038	1	2.6	0.74	0.0	0.0	2	1.0124444	-64.888672	161.0	11	1.1	0.9	18.66	-0.0	0.0	0.0
	2039	1	5.56	1.58	0.0	0.0	2	1.0025344	-62.101522	161.0	11	1.1	0.9	18.66	-0.0	0.0	0.0
	2040	1	15.9	4.51	0.0	0.0	2	1.0120471	-60.472514	161.0	11	1.1	0.9	18.66	-0.0	0.0	0.0
	2041	1	0.0	0.0	0.0	0.0	2	1.0313592	-35.766801	161.0	10	1.1	0.9	18.66	-0.0	0.0	0.0
	2042	2	0.0	0.0	0.0	0.0	2	1.0228008	-33.208347	18.0	10	1.1	0.9	18.66	-0.0	0.0	0.0
	2043	1	4.24	1.2	0.0	0.0	2	1.0138479	-69.943984	161.0	11	1.1	0.9	18.66	-0.0	0.0	0.0
	2044	1	27.399999999999995	7.76	0.0	0.0	2	1.0215463	-66.025909	161.0	11	1.1	0.9	18.66	-0.0	0.0	0.0
	2045	1	22.61	6.4	0.0	0.0	2	1.00808	-50.804503	161.0	11	1.1	0.9	18.66	-0.0	0.0	0.0
	2046	1	22.13	6.27	0.0	0.0	2	1.0126043	-69.316937	161.0	11	1.1	0.9	18.66	-0.0	0.0	0.0
	2047	1	14.96	4.24	0.0	0.0	2	1.0142703	-65.302372	161.0	11	1.1	0.9	18.66	-0.0	0.0	0.0
	2048	1	6.419999999999999	1.82	0.0	0.0	2	1.0292136	-39.714166	161.0	10	1.1	0.9	18.66	-0.0	0.0	0.0
	2049	1	11.57	3.2799999999999994	0.0	0.0	2	1.0249581	-46.743143	161.0	10	1.1	0.9	18.66	-0.0	0.0	0.0
	2050	1	3.66	1.04	0.0	0.0	2	0.9997112	-64.156156	161.0	11	1.1	0.9	18.66	-0.0	0.0	0.0
	2051	1	17.85	5.06	0.0	0.0	2	1.0050693	-57.498264000000006	161.0	11	1.1	0.9	18.66	-0.0	0.0	0.0
	2052	1	24.84	7.04	0.0	0.0	2	1.0208313	-40.244999	161.0	10	1.1	0.9	18.66	-0.0	0.0	0.0
	2053	1	29.13	8.25	0.0	0.0	2	0.9994794	-60.21803700000001	161.0	11	1.1	0.9	18.66	-0.0	0.0	0.0
	2054	1	0.0	0.0	0.0	0.0	2	1.0115376	-48.843823	500.0	11	1.1	0.9	18.66	-0.0	0.0	0.0
	2055	1	49.62	14.06	0.0	0.0	2	1.010472	-49.571943	161.0	11	1.1	0.9	18.66	-0.0	0.0	0.0
	2056	1	0.0	0.0	0.0	0.0	2	1.0115376	-48.843823	18.0	11	1.1	0.9	18.66	-0.0	0.0	0.0
	2057	2	0.0	0.0	0.0	0.0	2	0.9994531	-45.70342800000001	18.0	11	1.1	0.9	18.66	-0.0	0.0	0.0
	2058	1	0.0	0.0	0.0	0.0	2	1.0316748	-35.315783	161.0	10	1.1	0.9	18.66	-0.0	0.0	0.0
	2059	2	0.0	0.0	0.0	0.0	2	1.0217211	-31.991210000000002	13.8	10	1.1	0.9	18.66	-0.0	0.0	0.0
	2060	1	3.8	1.08	0.0	0.0	2	1.0027136	-62.919976	161.0	11	1.1	0.9	18.66	-0.0	0.0	0.0
	2061	1	0.0	0.0	0.0	0.0	2	1.0257041	-43.465797	161.0	10	1.1	0.9	18.66	-0.0	0.0	0.0
	2062	2	0.0	0.0	0.0	0.0	2	1.02	-41.169259	18.0	10	1.1	0.9	18.66	0.0	0.0	0.0
	2063	1	65.62	18.59	0.0	40.0	2	1.0137078	-68.718101	161.0	11	1.1	0.9	18.66	-0.0	0.0	0.0
	2064	1	10.05	2.85	0.0	0.0	2	1.0079864	-61.352258	161.0	11	1.1	0.9	18.66	-0.0	0.0	0.0
	2065	1	78.36	22.2	0.0	96.15	2	1.03	-66.39214	161.0	11	1.1	0.9	18.66	0.0	0.0	0.0
	2066	1	7.109999999999999	2.02	0.0	0.0	2	1.020699	-33.738371	161.0	10	1.1	0.9	18.66	-0.0	0.0	0.0
	2067	1	53.97	15.289999999999997	0.0	0.0	2	1.003964	-49.518224	161.0	11	1.1	0.9	18.66	-0.0	0.0	0.0
	2068	1	5.76	1.63	0.0	0.0	2	1.0065985	-47.204587	161.0	11	1.1	0.9	18.66	-0.0	0.0	0.0
	2069	1	21.92	6.21	0.0	120.0	2	1.0298478	-69.391618	161.0	11	1.1	0.9	18.66	0.0	0.0	0.0
	2070	1	0.0	0.0	0.0	0.0	2	1.0080691	-46.681327	161.0	11	1.1	0.9	18.66	-0.0	0.0	0.0
	2071	2	0.0	0.0	0.0	0.0	2	1.0	-43.019452	18.0	11	1.1	0.9	18.66	0.0	0.0	0.0
	2072	1	9.71	2.75	0.0	0.0	2	1.0233892	-67.582538	161.0	11	1.1	0.9	18.66	0.0	0.0	0.0
	2073	1	0.0	0.0	0.0	0.0	2	1.0212667	-31.114563	161.0	10	1.1	0.9	18.66	-0.0	0.0	0.0
	2074	1	0.0	0.0	0.0	0.0	2	1.0105466	-29.019380999999996	115.0	10	1.1	0.9	18.66	-0.0	0.0	0.0
	2075	1	0.0	0.0	0.0	0.0	2	1.0105466	-29.019380999999996	115.0	10	1.1	0.9	18.66	-0.0	0.0	0.0
	2076	2	0.0	0.0	0.0	0.0	2	1.0265019	-30.218005	24.0	10	1.1	0.9	18.66	-0.0	0.0	0.0
	2077	1	0.0	0.0	0.0	0.0	2	1.02708	-62.633945	161.0	11	1.1	0.9	18.66	-0.0	0.0	0.0
	2078	2	0.0	0.0	0.0	0.0	2	1.02	-59.326589	13.8	11	1.1	0.9	18.66	0.0	0.0	0.0
	2079	1	4.48	1.27	0.0	0.0	2	1.0309062	-41.800812	161.0	10	1.1	0.9	18.66	-0.0	0.0	0.0
	2080	1	16.93	4.8	0.0	0.0	2	1.0084444	-59.96280800000001	161.0	11	1.1	0.9	18.66	-0.0	0.0	0.0
	2081	1	4.46	1.26	0.0	0.0	2	1.0071177	-65.676489	161.0	11	1.1	0.9	18.66	-0.0	0.0	0.0
	2082	1	59.03	16.73	0.0	0.0	2	1.0141436	-50.358388	161.0	11	1.1	0.9	18.66	-0.0	0.0	0.0
	2083	2	0.0	0.0	0.0	0.0	2	1.02	-48.781704	20.0	11	1.1	0.9	18.66	0.0	0.0	0.0
	2084	1	0.0	0.0	0.0	0.0	2	1.0141436	-50.358388	20.0	11	1.1	0.9	18.66	-0.0	0.0	0.0
	2085	1	0.0	0.0	0.0	0.0	2	1.0141436	-50.358388	20.0	11	1.1	0.9	18.66	-0.0	0.0	0.0
	2086	1	2.19	0.62	0.0	0.0	2	1.0049149	-61.303744	161.0	11	1.1	0.9	18.66	-0.0	0.0	0.0
	2087	1	7.9	2.24	0.0	0.0	2	1.0220986	-34.071662	161.0	10	1.1	0.9	18.66	-0.0	0.0	0.0
	2088	1	0.0	0.0	0.0	0.0	2	1.007158	-46.865657	161.0	11	1.1	0.9	18.66	-0.0	0.0	0.0
	2089	2	0.0	0.0	0.0	0.0	2	1.0	-43.27969900000001	24.0	11	1.1	0.9	18.66	0.0	0.0	0.0
	2090	1	2.42	0.69	0.0	0.0	2	1.0075246	-62.103332	161.0	11	1.1	0.9	18.66	-0.0	0.0	0.0
	2091	1	17.05	4.83	0.0	0.0	2	1.024834	-40.389428	161.0	10	1.1	0.9	18.66	-0.0	0.0	0.0
	2092	1	24.11	6.83	0.0	0.0	2	1.0124398	-67.08606	161.0	11	1.1	0.9	18.66	-0.0	0.0	0.0
	2093	1	0.0	0.0	0.0	0.0	2	1.0306504	-38.95723	161.0	10	1.1	0.9	18.66	-0.0	0.0	0.0
	2094	1	0.0	0.0	0.0	0.0	2	1.0306504	-38.95723	13.8	10	1.1	0.9	18.66	-0.0	0.0	0.0
	2095	1	0.0	0.0	0.0	0.0	2	1.0306504	-38.95723	13.8	10	1.1	0.9	18.66	-0.0	0.0	0.0
	2096	1	0.0	0.0	0.0	-173.87	2	1.0297711	-40.089806	500.0	10	1.1	0.9	18.66	-0.0	0.0	0.0
	2097	1	0.0	0.0	0.0	0.0	2	1.0266064	-39.00771300000001	230.0	10	1.1	0.9	18.66	-0.0	0.0	0.0
	2098	1	0.0	0.0	0.0	0.0	2	1.0292941	-40.106234	161.0	10	1.1	0.9	18.66	-0.0	0.0	0.0
	2099	2	0.0	0.0	0.0	0.0	2	1.0293034	-39.94861	18.0	10	1.1	0.9	18.66	-0.0	0.0	0.0
	2100	2	0.0	0.0	0.0	0.0	2	1.0205687	-37.482634	18.0	10	1.1	0.9	18.66	-0.0	0.0	0.0
	2101	1	0.0	0.0	0.0	0.0	2	1.0160233	-63.159415	500.0	11	1.1	0.9	18.66	-0.0	0.0	0.0
	2102	1	0.0	0.0	0.0	0.0	2	1.016934	-64.55938	161.0	11	1.1	0.9	18.66	-0.0	0.0	0.0
	2103	1	0.0	0.0	0.0	0.0	2	1.0160233	-63.159415	20.0	11	1.1	0.9	18.66	-0.0	0.0	0.0
	2104	1	0.0	0.0	0.0	0.0	2	1.0160233	-63.159415	20.0	11	1.1	0.9	18.66	-0.0	0.0	0.0
	2105	1	0.0	0.0	0.0	0.0	2	1.0160233	-63.159415	20.0	11	1.1	0.9	18.66	-0.0	0.0	0.0
	2106	1	14.400000000000002	4.08	0.0	0.0	2	0.995499	-66.755343	161.0	11	1.1	0.9	18.66	-0.0	0.0	0.0
	2107	1	74.15	21.01	0.0	0.0	2	1.0117033	-65.364823	161.0	11	1.1	0.9	18.66	-0.0	0.0	0.0
	2108	1	2.14	0.61	0.0	0.0	2	1.0127688	-47.191431	161.0	10	1.1	0.9	18.66	0.0	0.0	0.0
	2109	1	33.81	9.58	0.0	0.0	2	1.0184129	-51.630965	161.0	11	1.1	0.9	18.66	-0.0	0.0	0.0
...
];

%% generator data
%    bus    Pg    Qg    Qmax    Qmin    Vg    mBase    status    Pmax    Pmin    Pc1    Pc2    Qc1min    Qc1max    Qc2min    Qc2max    ramp_agc    ramp_10    ramp_30    ramp_q    apf
mpc.gen = [
	1004	158.25	-30.380000000000003	44.94	-30.380000000000003	1.01	253.2	1	158.25	158.25	0.0	0.0	0.0	0.0	0.0	0.0	0.0	0.0	0.0	0.0	211.0	0.0	0.0	0.0	0.0
	1006	25.730000000000004	-4.94	7.31	-4.94	1.0	41.16	1	25.730000000000004	25.730000000000004	0.0	0.0	0.0	0.0	0.0	0.0	0.0	0.0	0.0	0.0	34.3	0.0	0.0	0.0	0.0
	1009	61.870000000000005	-11.88	17.57	-11.88	1.0	99.0	1	61.870000000000005	61.870000000000005	0.0	0.0	0.0	0.0	0.0	0.0	0.0	0.0	0.0	0.0	82.5	0.0	0.0	0.0	0.0
	1011	10.0	0.0	0.0	0.0	1.0	12.0	1	10.0	10.0	0.0	0.0	0.0	0.0	0.0	0.0	0.0	0.0	0.0	0.0	10.0	0.0	0.0	0.0	0.0
	1021	149.63	-28.73	42.49	-28.73	1.0	239.4	1	149.63	149.63	0.0	0.0	0.0	0.0	0.0	0.0	0.0	0.0	0.0	0.0	199.5	0.0	0.0	0.0	0.0
	1023	135.0	0.04	38.34	-25.920000000000005	1.01	216.0	1	135.0	135.0	0.0	0.0	0.0	0.0	0.0	0.0	0.0	0.0	0.0	0.0	180.0	0.0	0.0	0.0	0.0
	1026	93.15	-6.81	26.450000000000003	-17.88	1.0	149.04	1	93.15	93.15	0.0	0.0	0.0	0.0	0.0	0.0	0.0	0.0	0.0	0.0	124.2	0.0	0.0	0.0	0.0
	1033	208.5	-40.03	59.209999999999994	-40.03	1.0	333.6	1	208.5	208.5	0.0	0.0	0.0	0.0	0.0	0.0	0.0	0.0	0.0	0.0	278.0	0.0	0.0	0.0	0.0
	1035	67.5	-9.36	19.17	-12.960000000000003	1.0	108.0	1	67.5	67.5	0.0	0.0	0.0	0.0	0.0	0.0	0.0	0.0	0.0	0.0	90.0	0.0	0.0	0.0	0.0
	1039	110.63000000000001	-21.01	31.42	-21.24	1.0	177.0	1	110.63000000000001	110.63000000000001	0.0	0.0	0.0	0.0	0.0	0.0	0.0	0.0	0.0	0.0	147.5	0.0	0.0	0.0	0.0
	1042	0.0	0.0	25.96	-17.55	1.0	146.28	0	121.9	36.57	0.0	0.0	0.0	0.0	0.0	0.0	0.0	0.0	0.0	0.0	121.9	0.0	0.0	0.0	0.0
	1043	44.1	-3.7599999999999993	12.520000000000001	-8.47	1.0	70.56	1	44.1	44.1	0.0	0.0	0.0	0.0	0.0	0.0	0.0	0.0	0.0	0.0	58.8	0.0	0.0	0.0	0.0
	1048	0.0	0.0	165.53	-36.1	1.0	390.24	0	325.2	97.56	0.0	0.0	0.0	0.0	0.0	0.0	0.0	0.0	0.0	0.0	325.2	0.0	0.0	0.0	0.0
	1049	0.0	0.0	165.53	-36.1	1.0	390.24	0	325.2	97.56	0.0	0.0	0.0	0.0	0.0	0.0	0.0	0.0	0.0	0.0	325.2	0.0	0.0	0.0	0.0
	1050	89.4	-6.97	45.5	-9.92	1.0	107.28	1	89.4	26.82	0.0	0.0	0.0	0.0	0.0	0.0	0.0	0.0	0.0	0.0	89.4	0.0	0.0	0.0	0.0
	1051	89.4	-5.07	45.5	-9.92	1.0	107.28	1	89.4	26.82	0.0	0.0	0.0	0.0	0.0	0.0	0.0	0.0	0.0	0.0	89.4	0.0	0.0	0.0	0.0
	1052	89.4	-9.92	45.5	-9.92	1.0	107.28	1	89.4	26.82	0.0	0.0	0.0	0.0	0.0	0.0	0.0	0.0	0.0	0.0	89.4	0.0	0.0	0.0	0.0
	1053	0.0	0.0	91.01	-19.85	1.0	214.56	0	178.8	53.64	0.0	0.0	0.0	0.0	0.0	0.0	0.0	0.0	0.0	0.0	178.8	0.0	0.0	0.0	0.0
	1057	0.0	0.0	25.56	-17.28	1.0	144.0	0	120.0	36.0	0.0	0.0	0.0	0.0	0.0	0.0	0.0	0.0	0.0	0.0	120.0	0.0	0.0	0.0	0.0
	1059	0.0	0.0	2.85	-0.62	1.04	6.72	0	5.6	1.68	0.0	0.0	0.0	0.0	0.0	0.0	0.0	0.0	0.0	0.0	5.6	0.0	0.0	0.0	0.0
	1060	0.0	0.0	1.02	-0.22	1.04	2.4	0	2.0	0.6	0.0	0.0	0.0	0.0	0.0	0.0	0.0	0.0	0.0	0.0	2.0	0.0	0.0	0.0	0.0
	1062	0.0	0.0	0.0	0.0	1.01	1.8	0	1.5	0.45000000000000007	0.0	0.0	0.0	0.0	0.0	0.0	0.0	0.0	0.0	0.0	1.5	0.0	0.0	0.0	0.0
	1063	0.0	0.0	0.0	0.0	1.01	276.0	0	229.99999999999997	69.0	0.0	0.0	0.0	0.0	0.0	0.0	0.0	0.0	0.0	0.0	230.0	0.0	0.0	0.0	0.0
	1066	106.88	-3.83	30.349999999999998	-20.52	1.0	171.0	1	106.88	106.88	0.0	0.0	0.0	0.0	0.0	0.0	0.0	0.0	0.0	0.0	142.5	0.0	0.0	0.0	0.0
	1070	120.38	17.67	34.19	-23.11	1.04	192.6	1	120.38	120.38	0.0	0.0	0.0	0.0	0.0	0.0	0.0	0.0	0.0	0.0	160.5	0.0	0.0	0.0	0.0
	1072	192.13	20.93	97.8	-21.33	1.01	230.56	1	192.13	57.64	0.0	0.0	0.0	0.0	0.0	0.0	0.0	0.0	0.0	0.0	192.13	0.0	0.0	0.0	0.0
	1073	192.13	29.98	97.8	-21.33	1.01	230.56	1	192.13	57.64	0.0	0.0	0.0	0.0	0.0	0.0	0.0	0.0	0.0	0.0	192.13	0.0	0.0	0.0	0.0
	1074	192.13	25.86	97.8	-21.33	1.01	230.56	1	192.13	57.64	0.0	0.0	0.0	0.0	0.0	0.0	0.0	0.0	0.0	0.0	192.13	0.0	0.0	0.0	0.0
	1075	192.13	25.86	97.8	-21.33	1.01	230.56	1	192.13	57.64	0.0	0.0	0.0	0.0	0.0	0.0	0.0	0.0	0.0	0.0	192.13	0.0	0.0	0.0	0.0
	1076	0.0	0.0	97.8	-21.33	1.01	230.56	0	192.13	57.64	0.0	0.0	0.0	0.0	0.0	0.0	0.0	0.0	0.0	0.0	192.13	0.0	0.0	0.0	0.0
	1077	0.0	0.0	97.8	-21.33	1.01	230.56	0	192.13	57.64	0.0	0.0	0.0	0.0	0.0	0.0	0.0	0.0	0.0	0.0	192.13	0.0	0.0	0.0	0.0
	1078	95.5	13.71	48.61	-10.6	1.01	114.6	1	95.5	28.65	0.0	0.0	0.0	0.0	0.0	0.0	0.0	0.0	0.0	0.0	95.5	0.0	0.0	0.0	0.0
	1079	95.5	-10.6	48.61	-10.6	1.01	114.6	1	95.5	28.65	0.0	0.0	0.0	0.0	0.0	0.0	0.0	0.0	0.0	0.0	95.5	0.0	0.0	0.0	0.0
	1080	95.5	10.71	48.61	-10.6	1.01	114.6	1	95.5	28.65	0.0	0.0	0.0	0.0	0.0	0.0	0.0	0.0	0.0	0.0	95.5	0.0	0.0	0.0	0.0
	1081	0.0	0.0	145.83	-31.8	1.01	343.8	0	286.5	85.95	0.0	0.0	0.0	0.0	0.0	0.0	0.0	0.0	0.0	0.0	286.5	0.0	0.0	0.0	0.0
	1082	112.5	-21.6	31.95	-21.6	1.0	180.0	1	112.5	112.5	0.0	0.0	0.0	0.0	0.0	0.0	0.0	0.0	0.0	0.0	150.0	0.0	0.0	0.0	0.0
	1084	86.62	24.6	24.6	-16.63	1.04	138.6	1	86.62	86.62	0.0	0.0	0.0	0.0	0.0	0.0	0.0	0.0	0.0	0.0	115.5	0.0	0.0	0.0	0.0
	1088	56.25	-3.4799999999999995	15.97	-10.8	1.0	90.0	1	56.25	56.25	0.0	0.0	0.0	0.0	0.0	0.0	0.0	0.0	0.0	0.0	75.0	0.0	0.0	0.0	0.0
	1090	114.36999999999999	24.2	32.48	-21.96	1.02	183.0	1	114.36999999999999	114.36999999999999	0.0	0.0	0.0	0.0	0.0	0.0	0.0	0.0	0.0	0.0	152.5	0.0	0.0	0.0	0.0
	1090	27.0	7.670000000000001	7.670000000000001	-5.18	1.02	43.2	1	27.0	27.0	0.0	0.0	0.0	0.0	0.0	0.0	0.0	0.0	0.0	0.0	36.0	0.0	0.0	0.0	0.0
	2004	0.0	0.0	199.43	-43.49	1.02	470.16	0	391.8	117.54	0.0	0.0	0.0	0.0	0.0	0.0	0.0	0.0	0.0	0.0	391.8	0.0	0.0	0.0	0.0
	2005	0.0	0.0	199.43	-43.49	1.02	470.16	0	391.8	117.54	0.0	0.0	0.0	0.0	0.0	0.0	0.0	0.0	0.0	0.0	391.8	0.0	0.0	0.0	0.0
	2006	0.0	0.0	199.43	-43.49	1.02	470.16	0	391.8	117.54	0.0	0.0	0.0	0.0	0.0	0.0	0.0	0.0	0.0	0.0	391.8	0.0	0.0	0.0	0.0
	2013	150.45	-28.89	42.73	-28.89	1.0	240.72	1	150.45	150.45	0.0	0.0	0.0	0.0	0.0	0.0	0.0	0.0	0.0	0.0	200.6	0.0	0.0	0.0	0.0
	2019	0.0	0.0	46.43	-31.39	1.04	261.6	0	218.00000000000003	65.4	0.0	0.0	0.0	0.0	0.0	0.0	0.0	0.0	0.0	0.0	218.0	0.0	0.0	0.0	0.0
	2023	83.33	5.96	42.42	-9.25	1.02	100.0	1	83.33	25.0	0.0	0.0	0.0	0.0	0.0	0.0	0.0	0.0	0.0	0.0	83.33	0.0	0.0	0.0	0.0
	2024	166.67	9.39	84.83	-18.5	1.02	200.0	1	166.67	50.0	0.0	0.0	0.0	0.0	0.0	0.0	0.0	0.0	0.0	0.0	166.67	0.0	0.0	0.0	0.0
	2042	59.699999999999996	-11.46	16.95	-11.46	1.01	95.52	1	59.699999999999996	59.699999999999996	0.0	0.0	0.0	0.0	0.0	0.0	0.0	0.0	0.0	0.0	79.6	0.0	0.0	0.0	0.0
	2056	0.0	0.0	2.8	-0.73	0.99	7.2	0	6.0	1.8000000000000003	0.0	0.0	0.0	0.0	0.0	0.0	0.0	0.0	0.0	0.0	6.0	0.0	0.0	0.0	0.0
	2057	417.6	-87.84	335.52	-87.84	0.99	864.0	1	720.0	216.0	0.0	0.0	0.0	0.0	0.0	0.0	0.0	0.0	0.0	0.0	720.0	0.0	0.0	0.0	0.0
	2059	60.0	-11.52	17.04	-11.52	1.0	96.0	1	60.0	60.0	0.0	0.0	0.0	0.0	0.0	0.0	0.0	0.0	0.0	0.0	80.0	0.0	0.0	0.0	0.0
	2062	101.55000000000001	-16.09	28.84	-19.5	1.02	162.48	1	101.55000000000001	101.55000000000001	0.0	0.0	0.0	0.0	0.0	0.0	0.0	0.0	0.0	0.0	135.4	0.0	0.0	0.0	0.0
	2071	112.5	-13.07	31.95	-21.6	1.0	180.0	1	112.5	112.5	0.0	0.0	0.0	0.0	0.0	0.0	0.0	0.0	0.0	0.0	150.0	0.0	0.0	0.0	0.0
	2076	22.5	6.39	6.39	-4.32	1.04	36.0	1	22.5	22.5	0.0	0.0	0.0	0.0	0.0	0.0	0.0	0.0	0.0	0.0	30.0	0.0	0.0	0.0	0.0
	2078	84.38	-10.04	23.96	-16.2	1.02	135.0	1	84.38	84.38	0.0	0.0	0.0	0.0	0.0	0.0	0.0	0.0	0.0	0.0	112.5	0.0	0.0	0.0	0.0
	2083	20.0	3.8900000000000006	10.18	-2.22	1.02	24.0	1	20.0	6.0	0.0	0.0	0.0	0.0	0.0	0.0	0.0	0.0	0.0	0.0	20.0	0.0	0.0	0.0	0.0
	2084	0.0	0.0	10.18	-2.22	1.02	24.0	0	20.0	6.0	0.0	0.0	0.0	0.0	0.0	0.0	0.0	0.0	0.0	0.0	20.0	0.0	0.0	0.0	0.0
	2085	0.0	0.0	20.36	-4.44	1.02	48.0	0	40.0	12.0	0.0	0.0	0.0	0.0	0.0	0.0	0.0	0.0	0.0	0.0	40.0	0.0	0.0	0.0	0.0
	2089	50.7	-5.24	14.400000000000002	-9.73	1.0	81.12	1	50.7	50.7	0.0	0.0	0.0	0.0	0.0	0.0	0.0	0.0	0.0	0.0	67.6	0.0	0.0	0.0	0.0
	2094	0.0	0.0	2.13	-1.44	1.0	12.0	0	10.0	3.0	0.0	0.0	0.0	0.0	0.0	0.0	0.0	0.0	0.0	0.0	10.0	0.0	0.0	0.0	0.0
	2095	0.0	0.0	16.93	-11.45	1.0	95.4	0	79.5	23.85	0.0	0.0	0.0	0.0	0.0	0.0	0.0	0.0	0.0	0.0	79.5	0.0	0.0	0.0	0.0
	2099	7.5	-1.44	2.13	-1.44	1.02	12.0	1	7.5	7.5	0.0	0.0	0.0	0.0	0.0	0.0	0.0	0.0	0.0	0.0	10.0	0.0	0.0	0.0	0.0
	2100	112.5	-21.6	31.95	-21.6	1.02	180.0	1	112.5	112.5	0.0	0.0	0.0	0.0	0.0	0.0	0.0	0.0	0.0	0.0	150.0	0.0	0.0	0.0	0.0
	2103	0.0	0.0	136.28	-29.719999999999995	1.0	321.28	0	267.73	80.32	0.0	0.0	0.0	0.0	0.0	0.0	0.0	0.0	0.0	0.0	267.73	0.0	0.0	0.0	0.0
	2104	0.0	0.0	136.28	-29.719999999999995	1.0	321.28	0	267.73	80.32	0.0	0.0	0.0	0.0	0.0	0.0	0.0	0.0	0.0	0.0	267.73	0.0	0.0	0.0	0.0
	2105	0.0	0.0	136.28	-29.719999999999995	1.0	321.28	0	267.73	80.32	0.0	0.0	0.0	0.0	0.0	0.0	0.0	0.0	0.0	0.0	267.73	0.0	0.0	0.0	0.0
	2115	184.72	-20.5	94.02	-20.5	1.0	221.66	1	184.72	55.40999999999999	0.0	0.0	0.0	0.0	0.0	0.0	0.0	0.0	0.0	0.0	184.72	0.0	0.0	0.0	0.0
	2116	184.72	-20.5	94.02	-20.5	1.0	221.66	1	184.72	55.40999999999999	0.0	0.0	0.0	0.0	0.0	0.0	0.0	0.0	0.0	0.0	184.72	0.0	0.0	0.0	0.0
	2117	184.72	-20.5	94.02	-20.5	1.0	221.66	1	184.72	55.40999999999999	0.0	0.0	0.0	0.0	0.0	0.0	0.0	0.0	0.0	0.0	184.72	0.0	0.0	0.0	0.0
	2118	184.72	-20.5	94.02	-20.5	1.0	221.66	1	184.72	55.40999999999999	0.0	0.0	0.0	0.0	0.0	0.0	0.0	0.0	0.0	0.0	184.72	0.0	0.0	0.0	0.0
	2119	184.72	-20.5	94.02	-20.5	1.0	221.66	1	184.72	55.40999999999999	0.0	0.0	0.0	0.0	0.0	0.0	0.0	0.0	0.0	0.0	184.72	0.0	0.0	0.0	0.0
	2120	184.72	-11.78	94.02	-20.5	1.01	221.66	1	184.72	55.40999999999999	0.0	0.0	0.0	0.0	0.0	0.0	0.0	0.0	0.0	0.0	184.72	0.0	0.0	0.0	0.0
	2123	136.28	-26.16	38.7	-26.16	1.0	218.04	1	136.28	136.28	0.0	0.0	0.0	0.0	0.0	0.0	0.0	0.0	0.0	0.0	181.7	0.0	0.0	0.0	0.0
	2127	216.45	-41.56	61.47	-41.56	1.04	346.32	1	216.45	216.45	0.0	0.0	0.0	0.0	0.0	0.0	0.0	0.0	0.0	0.0	288.6	0.0	0.0	0.0	0.0
	3004	28.13	-5.4	7.99	-5.4	1.0	45.0	1	28.13	28.13	0.0	0.0	0.0	0.0	0.0	0.0	0.0	0.0	0.0	0.0	37.5	0.0	0.0	0.0	0.0
	3017	127.12999999999998	-2.33	36.1	-24.41	1.01	203.4	1	127.12999999999998	127.12999999999998	0.0	0.0	0.0	0.0	0.0	0.0	0.0	0.0	0.0	0.0	169.5	0.0	0.0	0.0	0.0
	3020	112.5	-2.04	31.95	-21.6	1.03	180.0	1	112.5	112.5	0.0	0.0	0.0	0.0	0.0	0.0	0.0	0.0	0.0	0.0	150.0	0.0	0.0	0.0	0.0
	3028	150.0	23.36	42.6	-28.800000000000004	1.04	240.0	1	150.0	150.0	0.0	0.0	0.0	0.0	0.0	0.0	0.0	0.0	0.0	0.0	200.0	0.0	0.0	0.0	0.0
	3034	97.87	17.11	27.800000000000004	-18.79	1.03	156.6	1	97.87	97.87	0.0	0.0	0.0	0.0	0.0	0.0	0.0	0.0	0.0	0.0	130.5	0.0	0.0	0.0	0.0
	3039	156.75	30.29	44.52	-30.099999999999998	1.04	250.8	1	156.75	156.75	0.0	0.0	0.0	0.0	0.0	0.0	0.0	0.0	0.0	0.0	209.0	0.0	0.0	0.0	0.0
	3043	0.0	0.0	0.66	-0.14	1.04	1.56	0	1.3	0.39	0.0	0.0	0.0	0.0	0.0	0.0	0.0	0.0	0.0	0.0	1.3	0.0	0.0	0.0	0.0
	3044	0.0	0.0	45.5	-9.92	1.04	107.28	0	89.4	26.82	0.0	0.0	0.0	0.0	0.0	0.0	0.0	0.0	0.0	0.0	89.4	0.0	0.0	0.0	0.0
	3045	0.0	0.0	227.51999999999998	-49.62	1.04	536.4	0	447.0	134.1	0.0	0.0	0.0	0.0	0.0	0.0	0.0	0.0	0.0	0.0	447.0	0.0	0.0	0.0	0.0
	3048	180.75	51.33	51.33	-34.7	1.04	289.2	1	180.75	180.75	0.0	0.0	0.0	0.0	0.0	0.0	0.0	0.0	0.0	0.0	241.0	0.0	0.0	0.0	0.0
	3055	183.88	30.020000000000003	52.22	-35.3	1.04	294.2	1	183.88	183.88	0.0	0.0	0.0	0.0	0.0	0.0	0.0	0.0	0.0	0.0	245.17	0.0	0.0	0.0	0.0
	3056	183.88	21.08	52.22	-35.3	1.04	294.2	1	183.88	183.88	0.0	0.0	0.0	0.0	0.0	0.0	0.0	0.0	0.0	0.0	245.17	0.0	0.0	0.0	0.0
	3057	183.88	19.37	52.22	-35.3	1.04	294.2	1	183.88	183.88	0.0	0.0	0.0	0.0	0.0	0.0	0.0	0.0	0.0	0.0	245.17	0.0	0.0	0.0	0.0
	3060	124.22	10.87	35.28	-23.85	1.04	198.75	1	124.22	124.22	0.0	0.0	0.0	0.0	0.0	0.0	0.0	0.0	0.0	0.0	165.63	0.0	0.0	0.0	0.0
	3061	124.22	10.71	35.28	-23.85	1.04	198.75	1	124.22	124.22	0.0	0.0	0.0	0.0	0.0	0.0	0.0	0.0	0.0	0.0	165.63	0.0	0.0	0.0	0.0
	3062	124.22	13.089999999999998	35.28	-23.85	1.04	198.75	1	124.22	124.22	0.0	0.0	0.0	0.0	0.0	0.0	0.0	0.0	0.0	0.0	165.63	0.0	0.0	0.0	0.0
	3063	124.22	10.39	35.28	-23.85	1.04	198.75	1	124.22	124.22	0.0	0.0	0.0	0.0	0.0	0.0	0.0	0.0	0.0	0.0	165.63	0.0	0.0	0.0	0.0
	3065	60.370000000000005	-11.59	17.15	-11.59	1.0	96.6	1	60.370000000000005	60.370000000000005	0.0	0.0	0.0	0.0	0.0	0.0	0.0	0.0	0.0	0.0	80.5	0.0	0.0	0.0	0.0
	3068	112.5	23.41	31.95	-21.6	1.04	180.0	1	112.5	112.5	0.0	0.0	0.0	0.0	0.0	0.0	0.0	0.0	0.0	0.0	150.0	0.0	0.0	0.0	0.0
	3071	127.64999999999999	-24.51	36.25	-24.51	1.0	204.24	1	127.64999999999999	127.64999999999999	0.0	0.0	0.0	0.0	0.0	0.0	0.0	0.0	0.0	0.0	170.2	0.0	0.0	0.0	0.0
	3074	74.85	-7.2700000000000005	21.26	-14.37	1.0	119.76	1	74.85	74.85	0.0	0.0	0.0	0.0	0.0	0.0	0.0	0.0	0.0	0.0	99.8	0.0	0.0	0.0	0.0
	3081	186.75	23.7	53.04	-35.86	1.04	298.8	1	186.75	186.75	0.0	0.0	0.0	0.0	0.0	0.0	0.0	0.0	0.0	0.0	249.0	0.0	0.0	0.0	0.0
	3084	174.37	-13.88	49.52	-33.48	1.0	279.0	1	174.37	174.37	0.0	0.0	0.0	0.0	0.0	0.0	0.0	0.0	0.0	0.0	232.5	0.0	0.0	0.0	0.0
	3086	56.25	-2.01	15.97	-10.8	1.0	90.0	1	56.25	56.25	0.0	0.0	0.0	0.0	0.0	0.0	0.0	0.0	0.0	0.0	75.0	0.0	0.0	0.0	0.0
	3087	0.0	0.0	15.97	-10.8	1.0	90.0	0	75.0	22.5	0.0	0.0	0.0	0.0	0.0	0.0	0.0	0.0	0.0	0.0	75.0	0.0	0.0	0.0	0.0
	3092	150.0	18.47	42.6	-28.800000000000004	1.04	240.0	1	150.0	150.0	0.0	0.0	0.0	0.0	0.0	0.0	0.0	0.0	0.0	0.0	200.0	0.0	0.0	0.0	0.0
	3095	90.45	18.63	25.69	-17.37	1.04	144.72	1	90.45	90.45	0.0	0.0	0.0	0.0	0.0	0.0	0.0	0.0	0.0	0.0	120.6	0.0	0.0	0.0	0.0
	3098	120.0	19.65	34.08	-23.04	1.04	192.0	1	120.0	120.0	0.0	0.0	0.0	0.0	0.0	0.0	0.0	0.0	0.0	0.0	160.0	0.0	0.0	0.0	0.0
	3105	44.5	-0.74	17.07	-0.74	1.0	46.72	1	44.5	44.5	0.0	0.0	0.0	0.0	0.0	0.0	0.0	0.0	0.0	0.0	15.0	0.0	0.0	0.0	0.0
	3106	162.8	22.55	62.480000000000004	-2.69	1.0	170.94	1	162.8	162.8	0.0	0.0	0.0	0.0	0.0	0.0	0.0	0.0	0.0	0.0	54.9	0.0	0.0	0.0	0.0
	3110	63.0	12.879999999999999	17.89	-12.1	1.04	100.8	1	63.0	63.0	0.0	0.0	0.0	0.0	0.0	0.0	0.0	0.0	0.0	0.0	84.0	0.0	0.0	0.0	0.0
	3112	56.10000000000001	-3.7599999999999993	15.93	-10.77	1.0	89.76	1	56.10000000000001	56.10000000000001	0.0	0.0	0.0	0.0	0.0	0.0	0.0	0.0	0.0	0.0	74.8	0.0	0.0	0.0	0.0
	3113	56.10000000000001	-3.08	15.93	-10.77	1.0	89.76	1	56.10000000000001	56.10000000000001	0.0	0.0	0.0	0.0	0.0	0.0	0.0	0.0	0.0	0.0	74.8	0.0	0.0	0.0	0.0
	3117	47.25	-5.15	13.419999999999998	-9.07	1.0	75.6	1	47.25	47.25	0.0	0.0	0.0	0.0	0.0	0.0	0.0	0.0	0.0	0.0	63.0	0.0	0.0	0.0	0.0
	3118	90.0	-8.63	25.56	-17.28	1.0	144.0	1	90.0	90.0	0.0	0.0	0.0	0.0	0.0	0.0	0.0	0.0	0.0	0.0	120.0	0.0	0.0	0.0	0.0
	3120	29.7	0.0	0.0	0.0	1.0	47.52	1	29.7	29.7	0.0	0.0	0.0	0.0	0.0	0.0	0.0	0.0	0.0	0.0	39.6	0.0	0.0	0.0	0.0
	3122	147.75	-13.95	41.96	-28.37	1.0	236.4	1	147.75	147.75	0.0	0.0	0.0	0.0	0.0	0.0	0.0	0.0	0.0	0.0	197.0	0.0	0.0	0.0	0.0
	3127	101.25	-19.44	28.76	-19.44	1.0	162.0	1	101.25	101.25	0.0	0.0	0.0	0.0	0.0	0.0	0.0	0.0	0.0	0.0	135.0	0.0	0.0	0.0	0.0
	3129	94.88	-18.22	26.94	-18.22	1.0	151.8	1	94.88	94.88	0.0	0.0	0.0	0.0	0.0	0.0	0.0	0.0	0.0	0.0	126.5	0.0	0.0	0.0	0.0
	3131	85.5	14.35	24.28	-16.42	1.02	136.8	1	85.5	85.5	0.0	0.0	0.0	0.0	0.0	0.0	0.0	0.0	0.0	0.0	114.0	0.0	0.0	0.0	0.0
	3133	0.0	0.0	26.11	-5.69	1.04	61.56	0	51.300000000000004	15.39	0.0	0.0	0.0	0.0	0.0	0.0	0.0	0.0	0.0	0.0	51.3	0.0	0.0	0.0	0.0
	3133	0.0	0.0	26.11	-5.69	1.04	61.56	0	51.300000000000004	15.39	0.0	0.0	0.0	0.0	0.0	0.0	0.0	0.0	0.0	0.0	51.3	0.0	0.0	0.0	0.0
	3133	0.0	0.0	26.11	-5.69	1.04	61.56	0	51.300000000000004	15.39	0.0	0.0	0.0	0.0	0.0	0.0	0.0	0.0	0.0	0.0	51.3	0.0	0.0	0.0	0.0
	3137	75.9	21.56	21.56	-14.57	1.03	121.44	1	75.9	75.9	0.0	0.0	0.0	0.0	0.0	0.0	0.0	0.0	0.0	0.0	101.2	0.0	0.0	0.0	0.0
	3141	68.62	-13.18	19.49	-13.18	1.0	109.8	1	68.62	68.62	0.0	0.0	0.0	0.0	0.0	0.0	0.0	0.0	0.0	0.0	91.5	0.0	0.0	0.0	0.0
	4010	151.2	14.09	42.94	-29.03	1.03	241.92	1	151.2	151.2	0.0	0.0	0.0	0.0	0.0	0.0	0.0	0.0	0.0	0.0	201.6	0.0	0.0	0.0	0.0
	4026	409.99999999999994	39.82	191.06	-50.019999999999996	1.03	492.0	1	409.99999999999994	123.0	0.0	0.0	0.0	0.0	0.0	0.0	0.0	0.0	0.0	0.0	410.0	0.0	0.0	0.0	0.0
	4030	448.13	-66.83	290.04	-75.93	1.01	746.88	1	622.4	186.72	0.0	0.0	0.0	0.0	0.0	0.0	0.0	0.0	0.0	0.0	622.4	0.0	0.0	0.0	0.0
	4045	93.4	12.03	35.86	-1.54	1.02	98.07	1	93.4	93.4	0.0	0.0	0.0	0.0	0.0	0.0	0.0	0.0	0.0	0.0	31.5	0.0	0.0	0.0	0.0
	4046	6.72	4.62	10.94	-0.4699999999999999	1.02	29.92	1	6.72	6.72	0.0	0.0	0.0	0.0	0.0	0.0	0.0	0.0	0.0	0.0	9.6	0.0	0.0	0.0	0.0
	4047	195.7	17.83	75.1	-3.2300000000000004	1.02	205.49	1	195.7	195.7	0.0	0.0	0.0	0.0	0.0	0.0	0.0	0.0	0.0	0.0	66.0	0.0	0.0	0.0	0.0
	4050	150.0	-16.0	42.6	-28.800000000000004	1.0	240.0	1	150.0	150.0	0.0	0.0	0.0	0.0	0.0	0.0	0.0	0.0	0.0	0.0	200.0	0.0	0.0	0.0	0.0
	4052	44.2	22.5	22.5	-4.91	1.04	53.04	1	44.2	13.26	0.0	0.0	0.0	0.0	0.0	0.0	0.0	0.0	0.0	0.0	44.2	0.0	0.0	0.0	0.0
	4058	144.0	20.16	73.3	-15.98	1.03	172.8	1	144.0	43.2	0.0	0.0	0.0	0.0	0.0	0.0	0.0	0.0	0.0	0.0	144.0	0.0	0.0	0.0	0.0
	4059	144.0	20.1	73.3	-15.98	1.03	172.8	1	144.0	43.2	0.0	0.0	0.0	0.0	0.0	0.0	0.0	0.0	0.0	0.0	144.0	0.0	0.0	0.0	0.0
	4060	144.0	16.97	73.3	-15.98	1.03	172.8	1	144.0	43.2	0.0	0.0	0.0	0.0	0.0	0.0	0.0	0.0	0.0	0.0	144.0	0.0	0.0	0.0	0.0
	4061	172.33	21.71	87.72	-19.13	1.03	206.8	1	172.33	51.7	0.0	0.0	0.0	0.0	0.0	0.0	0.0	0.0	0.0	0.0	172.33	0.0	0.0	0.0	0.0
	4062	172.33	17.66	87.72	-19.13	1.03	206.8	1	172.33	51.7	0.0	0.0	0.0	0.0	0.0	0.0	0.0	0.0	0.0	0.0	172.33	0.0	0.0	0.0	0.0
	4063	172.33	23.74	87.72	-19.13	1.03	206.8	1	172.33	51.7	0.0	0.0	0.0	0.0	0.0	0.0	0.0	0.0	0.0	0.0	172.33	0.0	0.0	0.0	0.0
	4065	47.0	14.71	23.92	-5.22	1.02	56.4	1	47.0	14.099999999999998	0.0	0.0	0.0	0.0	0.0	0.0	0.0	0.0	0.0	0.0	47.0	0.0	0.0	0.0	0.0
	4075	0.0	0.0	89.75	-19.57	1.03	211.6	0	176.33	52.900000000000006	0.0	0.0	0.0	0.0	0.0	0.0	0.0	0.0	0.0	0.0	176.33	0.0	0.0	0.0	0.0
	4076	52.900000000000006	22.99	89.75	-19.57	1.03	211.6	1	176.33	52.900000000000006	0.0	0.0	0.0	0.0	0.0	0.0	0.0	0.0	0.0	0.0	176.33	0.0	0.0	0.0	0.0
	4077	52.900000000000006	20.54	89.75	-19.57	1.03	211.6	1	176.33	52.900000000000006	0.0	0.0	0.0	0.0	0.0	0.0	0.0	0.0	0.0	0.0	176.33	0.0	0.0	0.0	0.0
	4082	243.4	31.14	123.89000000000001	-27.02	1.04	292.08	1	243.4	73.02	0.0	0.0	0.0	0.0	0.0	0.0	0.0	0.0	0.0	0.0	243.4	0.0	0.0	0.0	0.0
	4083	243.4	32.02	123.89000000000001	-27.02	1.04	292.08	1	243.4	73.02	0.0	0.0	0.0	0.0	0.0	0.0	0.0	0.0	0.0	0.0	243.4	0.0	0.0	0.0	0.0
	4084	243.4	49.08	123.89000000000001	-27.02	1.04	292.08	1	243.4	73.02	0.0	0.0	0.0	0.0	0.0	0.0	0.0	0.0	0.0	0.0	243.4	0.0	0.0	0.0	0.0
	4085	302.72	55.17999999999999	179.17	-39.07	1.04	422.4	1	352.0	105.60000000000001	0.0	0.0	0.0	0.0	0.0	0.0	0.0	0.0	0.0	0.0	352.0	0.0	0.0	0.0	0.0
	4090	0.0	0.0	0.65	-0.17	1.01	1.68	0	1.4	0.42	0.0	0.0	0.0	0.0	0.0	0.0	0.0	0.0	0.0	0.0	1.4	0.0	0.0	0.0	0.0
	4091	23.5	3.42	10.95	-2.87	1.01	28.2	1	23.5	7.049999999999999	0.0	0.0	0.0	0.0	0.0	0.0	0.0	0.0	0.0	0.0	23.5	0.0	0.0	0.0	0.0
	4092	0.0	0.0	3.54	-0.93	1.01	9.12	0	7.6	2.28	0.0	0.0	0.0	0.0	0.0	0.0	0.0	0.0	0.0	0.0	7.6	0.0	0.0	0.0	0.0
	4093	28.000000000000004	2.1	13.05	-3.42	1.01	33.6	1	28.000000000000004	8.4	0.0	0.0	0.0	0.0	0.0	0.0	0.0	0.0	0.0	0.0	28.0	0.0	0.0	0.0	0.0
	4094	28.000000000000004	6.98	13.05	-3.42	1.01	33.6	1	28.000000000000004	8.4	0.0	0.0	0.0	0.0	0.0	0.0	0.0	0.0	0.0	0.0	28.0	0.0	0.0	0.0	0.0
	4095	28.000000000000004	3.19	13.05	-3.42	1.01	33.6	1	28.000000000000004	8.4	0.0	0.0	0.0	0.0	0.0	0.0	0.0	0.0	0.0	0.0	28.0	0.0	0.0	0.0	0.0
	4096	0.0	0.0	13.05	-3.42	1.01	33.6	0	28.000000000000004	8.4	0.0	0.0	0.0	0.0	0.0	0.0	0.0	0.0	0.0	0.0	28.0	0.0	0.0	0.0	0.0
	4097	28.000000000000004	2.79	13.05	-3.42	1.01	33.6	1	28.000000000000004	8.4	0.0	0.0	0.0	0.0	0.0	0.0	0.0	0.0	0.0	0.0	28.0	0.0	0.0	0.0	0.0
	4098	0.0	0.0	13.05	-3.42	1.01	33.6	0	28.000000000000004	8.4	0.0	0.0	0.0	0.0	0.0	0.0	0.0	0.0	0.0	0.0	28.0	0.0	0.0	0.0	0.0
	4105	135.0	28.27	38.34	-25.920000000000005	1.01	216.0	1	135.0	135.0	0.0	0.0	0.0	0.0	0.0	0.0	0.0	0.0	0.0	0.0	180.0	0.0	0.0	0.0	0.0
	4115	39.54	28.360000000000003	67.09	-14.63	1.04	158.16	1	131.8	39.54	0.0	0.0	0.0	0.0	0.0	0.0	0.0	0.0	0.0	0.0	131.8	0.0	0.0	0.0	0.0
	4116	39.54	26.57	67.09	-14.63	1.04	158.16	1	131.8	39.54	0.0	0.0	0.0	0.0	0.0	0.0	0.0	0.0	0.0	0.0	131.8	0.0	0.0	0.0	0.0
	4133	0.0	0.0	17.1	-3.73	1.0	40.32	0	33.6	10.08	0.0	0.0	0.0	0.0	0.0	0.0	0.0	0.0	0.0	0.0	33.6	0.0	0.0	0.0	0.0
	4134	10.08	-3.73	17.1	-3.73	1.0	40.32	1	33.6	10.08	0.0	0.0	0.0	0.0	0.0	0.0	0.0	0.0	0.0	0.0	33.6	0.0	0.0	0.0	0.0
	4135	10.08	-3.73	17.1	-3.73	1.0	40.32	1	33.6	10.08	0.0	0.0	0.0	0.0	0.0	0.0	0.0	0.0	0.0	0.0	33.6	0.0	0.0	0.0	0.0
	4136	10.08	-3.73	17.1	-3.73	1.0	40.32	1	33.6	10.08	0.0	0.0	0.0	0.0	0.0	0.0	0.0	0.0	0.0	0.0	33.6	0.0	0.0	0.0	0.0
	4137	0.0	0.0	34.2	-7.46	1.0	80.64	0	67.2	20.16	0.0	0.0	0.0	0.0	0.0	0.0	0.0	0.0	0.0	0.0	67.2	0.0	0.0	0.0	0.0
	4138	0.0	0.0	33.59	-7.33	1.0	79.2	0	66.0	19.8	0.0	0.0	0.0	0.0	0.0	0.0	0.0	0.0	0.0	0.0	66.0	0.0	0.0	0.0	0.0
	4142	141.0	35.28	40.04	-27.07	1.04	225.6	1	141.0	141.0	0.0	0.0	0.0	0.0	0.0	0.0	0.0	0.0	0.0	0.0	188.0	0.0	0.0	0.0	0.0
	4153	212.4	60.31999999999999	60.31999999999999	-40.78	1.04	339.84	1	212.4	212.4	0.0	0.0	0.0	0.0	0.0	0.0	0.0	0.0	0.0	0.0	283.2	0.0	0.0	0.0	0.0
	4160	197.77	70.38	100.66	-21.95	1.03	237.32	1	197.77	59.32999999999999	0.0	0.0	0.0	0.0	0.0	0.0	0.0	0.0	0.0	0.0	197.77	0.0	0.0	0.0	0.0
	4161	197.77	36.85	100.66	-21.95	1.03	237.32	1	197.77	59.32999999999999	0.0	0.0	0.0	0.0	0.0	0.0	0.0	0.0	0.0	0.0	197.77	0.0	0.0	0.0	0.0
	4162	197.77	32.88	100.66	-21.95	1.03	237.32	1	197.77	59.32999999999999	0.0	0.0	0.0	0.0	0.0	0.0	0.0	0.0	0.0	0.0	197.77	0.0	0.0	0.0	0.0
	4163	0.0	0.0	4.58	-1.0	1.03	10.8	0	9.0	2.7	0.0	0.0	0.0	0.0	0.0	0.0	0.0	0.0	0.0	0.0	9.0	0.0	0.0	0.0	0.0
	4166	150.75	-28.939999999999998	42.81	-28.939999999999998	1.0	241.2	1	150.75	150.75	0.0	0.0	0.0	0.0	0.0	0.0	0.0	0.0	0.0	0.0	201.0	0.0	0.0	0.0	0.0
	4177	112.5	-0.03	31.95	-21.6	1.04	180.0	1	112.5	112.5	0.0	0.0	0.0	0.0	0.0	0.0	0.0	0.0	0.0	0.0	150.0	0.0	0.0	0.0	0.0
	4181	150.07	42.62	42.62	-28.809999999999995	1.04	240.12	1	150.07	150.07	0.0	0.0	0.0	0.0	0.0	0.0	0.0	0.0	0.0	0.0	200.1	0.0	0.0	0.0	0.0
	4183	152.25	43.24	43.24	-29.23	1.03	243.6	1	152.25	152.25	0.0	0.0	0.0	0.0	0.0	0.0	0.0	0.0	0.0	0.0	203.0	0.0	0.0	0.0	0.0
	4192	75.0	22.36	38.17	-8.33	1.02	90.0	1	75.0	22.5	0.0	0.0	0.0	0.0	0.0	0.0	0.0	0.0	0.0	0.0	75.0	0.0	0.0	0.0	0.0
	4192	183.77	22.36	93.54	-20.4	1.02	220.52	1	183.77	55.13	0.0	0.0	0.0	0.0	0.0	0.0	0.0	0.0	0.0	0.0	183.77	0.0	0.0	0.0	0.0
	4192	0.0	0.0	12.22	-2.66	1.02	28.8	0	24.0	7.200000000000001	0.0	0.0	0.0	0.0	0.0	0.0	0.0	0.0	0.0	0.0	24.0	0.0	0.0	0.0	0.0
	4192	61.0	22.36	31.05	-6.77	1.02	73.2	1	61.0	18.3	0.0	0.0	0.0	0.0	0.0	0.0	0.0	0.0	0.0	0.0	61.0	0.0	0.0	0.0	0.0
	4192	10.4	5.29	5.29	-1.15	1.02	12.48	1	10.4	3.12	0.0	0.0	0.0	0.0	0.0	0.0	0.0	0.0	0.0	0.0	10.4	0.0	0.0	0.0	0.0
	4192	267.0	22.36	135.9	-29.64	1.02	320.4	1	267.0	80.1	0.0	0.0	0.0	0.0	0.0	0.0	0.0	0.0	0.0	0.0	267.0	0.0	0.0	0.0	0.0
	4192	267.0	22.36	135.9	-29.64	1.02	320.4	1	267.0	80.1	0.0	0.0	0.0	0.0	0.0	0.0	0.0	0.0	0.0	0.0	267.0	0.0	0.0	0.0	0.0
	4192	267.0	22.36	135.9	-29.64	1.02	320.4	1	267.0	80.1	0.0	0.0	0.0	0.0	0.0	0.0	0.0	0.0	0.0	0.0	267.0	0.0	0.0	0.0	0.0
	4192	183.77	22.36	93.54	-20.4	1.02	220.52	1	183.77	55.13	0.0	0.0	0.0	0.0	0.0	0.0	0.0	0.0	0.0	0.0	183.77	0.0	0.0	0.0	0.0
	4192	183.77	22.36	93.54	-20.4	1.02	220.52	1	183.77	55.13	0.0	0.0	0.0	0.0	0.0	0.0	0.0	0.0	0.0	0.0	183.77	0.0	0.0	0.0	0.0
	4194	151.2	42.94	42.94	-29.03	1.02	241.92	1	151.2	151.2	0.0	0.0	0.0	0.0	0.0	0.0	0.0	0.0	0.0	0.0	201.6	0.0	0.0	0.0	0.0
	4195	69.0	-13.25	19.6	-13.25	1.0	110.4	1	69.0	69.0	0.0	0.0	0.0	0.0	0.0	0.0	0.0	0.0	0.0	0.0	92.0	0.0	0.0	0.0	0.0
	5020	90.0	-17.28	25.56	-17.28	1.0	144.0	1	90.0	90.0	0.0	0.0	0.0	0.0	0.0	0.0	0.0	0.0	0.0	0.0	120.0	0.0	0.0	0.0	0.0
	5023	0.0	0.0	2.44	-0.53	1.04	5.76	0	4.8	1.44	0.0	0.0	0.0	0.0	0.0	0.0	0.0	0.0	0.0	0.0	4.8	0.0	0.0	0.0	0.0
	5035	0.0	0.0	2.14	-0.4699999999999999	1.02	5.04	0	4.2	1.26	0.0	0.0	0.0	0.0	0.0	0.0	0.0	0.0	0.0	0.0	4.2	0.0	0.0	0.0	0.0
	5036	0.0	0.0	3.26	-0.71	1.02	7.68	0	6.4	1.92	0.0	0.0	0.0	0.0	0.0	0.0	0.0	0.0	0.0	0.0	6.4	0.0	0.0	0.0	0.0
	5037	308.47	52.7	157.01	-34.24	1.02	370.16	1	308.47	92.54	0.0	0.0	0.0	0.0	0.0	0.0	0.0	0.0	0.0	0.0	308.47	0.0	0.0	0.0	0.0
	5038	308.47	51.910000000000004	157.01	-34.24	1.02	370.16	1	308.47	92.54	0.0	0.0	0.0	0.0	0.0	0.0	0.0	0.0	0.0	0.0	308.47	0.0	0.0	0.0	0.0
	5039	308.47	110.24000000000001	157.01	-34.24	1.02	370.16	1	308.47	92.54	0.0	0.0	0.0	0.0	0.0	0.0	0.0	0.0	0.0	0.0	308.47	0.0	0.0	0.0	0.0
	5040	308.47	39.4	157.01	-34.24	1.02	370.16	1	308.47	92.54	0.0	0.0	0.0	0.0	0.0	0.0	0.0	0.0	0.0	0.0	308.47	0.0	0.0	0.0	0.0
	5041	308.47	53.78000000000001	157.01	-34.24	1.02	370.16	1	308.47	92.54	0.0	0.0	0.0	0.0	0.0	0.0	0.0	0.0	0.0	0.0	308.47	0.0	0.0	0.0	0.0
	5042	308.47	49.23	157.01	-34.24	1.02	370.16	1	308.47	92.54	0.0	0.0	0.0	0.0	0.0	0.0	0.0	0.0	0.0	0.0	308.47	0.0	0.0	0.0	0.0
	5051	84.7	37.36	43.11	-9.4	1.02	101.64	1	84.7	25.41	0.0	0.0	0.0	0.0	0.0	0.0	0.0	0.0	0.0	0.0	84.7	0.0	0.0	0.0	0.0
	5057	0.0	0.0	161.53	-35.23	1.0	380.82	0	317.35	95.2	0.0	0.0	0.0	0.0	0.0	0.0	0.0	0.0	0.0	0.0	317.35	0.0	0.0	0.0	0.0
	5058	317.35	-35.23	161.53	-35.23	1.0	380.82	1	317.35	95.2	0.0	0.0	0.0	0.0	0.0	0.0	0.0	0.0	0.0	0.0	317.35	0.0	0.0	0.0	0.0
	5065	10.6	5.4	5.4	-1.18	1.03	12.72	1	10.6	3.18	0.0	0.0	0.0	0.0	0.0	0.0	0.0	0.0	0.0	0.0	10.6	0.0	0.0	0.0	0.0
	5066	0.0	0.0	0.9199999999999999	-0.2	1.03	2.16	0	1.8000000000000003	0.54	0.0	0.0	0.0	0.0	0.0	0.0	0.0	0.0	0.0	0.0	1.8	0.0	0.0	0.0	0.0
	5067	254.2	152.14	223.08000000000004	-48.65	1.03	525.92	1	438.27	131.48	0.0	0.0	0.0	0.0	0.0	0.0	0.0	0.0	0.0	0.0	438.27	0.0	0.0	0.0	0.0
	5068	254.2	143.82	223.08000000000004	-48.65	1.03	525.92	1	438.27	131.48	0.0	0.0	0.0	0.0	0.0	0.0	0.0	0.0	0.0	0.0	438.27	0.0	0.0	0.0	0.0
	5069	254.2	134.78	223.08000000000004	-48.65	1.03	525.92	1	438.27	131.48	0.0	0.0	0.0	0.0	0.0	0.0	0.0	0.0	0.0	0.0	438.27	0.0	0.0	0.0	0.0
	5089	0.0	0.0	47.57	-2.05	1.01	130.1	0	123.9	0.0	0.0	0.0	0.0	0.0	0.0	0.0	0.0	0.0	0.0	0.0	41.8	0.0	0.0	0.0	0.0
...
];

%% branch data
%    f_bus    t_bus    r    x    b    rateA    rateB    rateC    ratio    angle    status    angmin    angmax
mpc.branch = [
	1001	1064	0.00524	0.0358	0.00609	221.0	0.0	0.0	0	0	1	-60.0001403060998	60.0001403060998	67.94	10.51	-67.69	-9.36	0.0	0.0	0.0	0.0
	1001	1064	0.00524	0.0358	0.00609	221.0	0.0	0.0	0	0	1	-60.0001403060998	60.0001403060998	67.94	10.51	-67.69	-9.36	0.0	0.0	0.0	0.0
	1001	1071	0.00435	0.02808	0.00536	221.0	0.0	0.0	0	0	1	-60.0001403060998	60.0001403060998	-78.33	-13.449999999999998	78.61	14.74	0.0	0.0	0.0	0.0
	1001	1071	0.00435	0.02808	0.00536	221.0	0.0	0.0	0	0	1	-60.0001403060998	60.0001403060998	-78.33	-13.449999999999998	78.61	14.74	0.0	0.0	0.0	0.0
	1002	1007	0.07776	0.46693	0.06336	98.0	0.0	0.0	0	0	1	-60.0001403060998	60.0001403060998	1.51	-5.13	-1.5	-1.52	0.0	0.0	0.0	0.0
	1010	1002	0.05552	0.1357	0.01777	98.0	0.0	0.0	0	0	1	-60.0001403060998	60.0001403060998	17.07	-2.26	-16.92	0.77	0.0	0.0	0.0	0.0
	1004	1003	0.0045	0.11582	0.0	250.0	0.0	0.0	1.0	0.0	1	-60.0001403060998	60.0001403060998	-24.22	6.88	24.25	-6.17	0.0	0.0	0.0	0.0
	1022	1003	0.00485	0.02012	0.00341	221.0	0.0	0.0	0	0	1	-60.0001403060998	60.0001403060998	63.82	-4.05	-63.629999999999995	4.5	0.0	0.0	0.0	0.0
	1055	1003	0.01574	0.03782	0.00513	98.0	0.0	0.0	0	0	1	-60.0001403060998	60.0001403060998	-39.15	-1.6200000000000003	39.38	1.67	0.0	0.0	0.0	0.0
	1004	3133	0.0042	0.03	0.055	523.0	0.0	0.0	0	0	1	-60.0001403060998	60.0001403060998	182.47	-37.26	-181.07	41.48	0.0	0.0	0.0	0.0
	1006	1005	0.00602	0.14707	0.0	42.0	0.0	0.0	1.0	0.0	1	-60.0001403060998	60.0001403060998	25.730000000000004	-4.94	-25.69	5.94	0.0	0.0	0.0	0.0
	1025	1005	0.01842	0.0821	0.01204	149.0	0.0	0.0	0	0	1	-60.0001403060998	60.0001403060998	43.47	4.8	-43.13	-4.53	0.0	0.0	0.0	0.0
	1005	1061	0.00599	0.02484	0.00422	221.0	0.0	0.0	0	0	1	-60.0001403060998	60.0001403060998	77.15	-25.36	-76.76	26.530000000000005	0.0	0.0	0.0	0.0
	1067	1005	0.01711	0.04181	0.00548	98.0	0.0	0.0	0	0	1	-60.0001403060998	60.0001403060998	8.44	-24.24	-8.33	23.95	0.0	0.0	0.0	0.0
	1007	1015	0.06224	0.37375	0.05072	98.0	0.0	0.0	0	0	1	-60.0001403060998	60.0001403060998	-1.6	-2.95	1.6	-2.43	0.0	0.0	0.0	0.0
	1031	1007	0.04803	0.27434	0.04123	98.0	0.0	0.0	0	0	1	-60.0001403060998	60.0001403060998	3.93	-6.88	-3.91	2.66	0.0	0.0	0.0	0.0
	1009	1008	0.00455	0.09471	0.0	120.0	0.0	0.0	1.0	0.0	1	-60.0001403060998	60.0001403060998	61.870000000000005	-11.88	-61.69	15.53	0.0	0.0	0.0	0.0
	1008	1032	0.04501	0.11002	0.01441	98.0	0.0	0.0	0	0	1	-60.0001403060998	60.0001403060998	60.17	-7.000000000000001	-58.599999999999994	9.34	0.0	0.0	0.0	0.0
	1008	1069	0.0083	0.03628	0.00553	149.0	0.0	0.0	0	0	1	-60.0001403060998	60.0001403060998	1.52	-8.53	-1.52	7.969999999999999	0.0	0.0	0.0	0.0
	1011	1010	0.00721	0.3246	0.0	46.0	0.0	0.0	1.0	0.0	1	-60.0001403060998	60.0001403060998	10.0	0.0	-9.99	0.31	0.0	0.0	0.0	0.0
	1010	1015	0.04703	0.28243	0.03833	98.0	0.0	0.0	0	0	1	-60.0001403060998	60.0001403060998	9.15	-4.14	-9.11	0.3	0.0	0.0	0.0	0.0
	1010	1030	0.0616	0.3699	0.0502	98.0	0.0	0.0	0	0	1	-60.0001403060998	60.0001403060998	-16.23	3.85	16.4	-8.05	0.0	0.0	0.0	0.0
	1012	1087	0.04934	0.20469	0.03473	149.0	0.0	0.0	0	0	1	-60.0001403060998	60.0001403060998	-69.9	16.8	72.37	-10.21	0.0	0.0	0.0	0.0
	3051	1012	0.0571	0.24977	0.03804	149.0	0.0	0.0	0	0	1	-60.0001403060998	60.0001403060998	-64.46	14.540000000000001	66.92	-7.71	0.0	0.0	0.0	0.0
	1013	1031	0.04509	0.27078	0.03675	98.0	0.0	0.0	0	0	1	-60.0001403060998	60.0001403060998	13.26	-7.490000000000001	-13.170000000000002	4.26	0.0	0.0	0.0	0.0
	1047	1013	0.00947	0.06117	0.01167	221.0	0.0	0.0	0	0	1	-60.0001403060998	60.0001403060998	58.51	-10.32	-58.18	11.25	0.0	0.0	0.0	0.0
	1086	1013	0.079	0.19311	0.02529	98.0	0.0	0.0	0	0	1	-60.0001403060998	60.0001403060998	-15.410000000000002	10.13	15.689999999999998	-12.04	0.0	0.0	0.0	0.0
	1014	1047	0.03566	0.14794	0.0251	149.0	0.0	0.0	0	0	1	-60.0001403060998	60.0001403060998	19.82	-0.65	-19.69	-1.35	0.0	0.0	0.0	0.0
	1014	1083	0.04105	0.18293	0.02682	149.0	0.0	0.0	0	0	1	-60.0001403060998	60.0001403060998	-22.04	0.02	22.24	-1.95	0.0	0.0	0.0	0.0
	1016	1034	0.01828	0.10976	0.01489	98.0	0.0	0.0	0	0	1	-60.0001403060998	60.0001403060998	-14.05	13.200000000000001	14.12	-14.31	0.0	0.0	0.0	0.0
	1068	1016	0.02773	0.15837	0.0238	98.0	0.0	0.0	0	0	1	-60.0001403060998	60.0001403060998	-11.04	-18.83	11.16	17.14	0.0	0.0	0.0	0.0
	1018	1017	0.03227	0.07887	0.01033	98.0	0.0	0.0	0	0	1	-60.0001403060998	60.0001403060998	27.279999999999998	-2.15	-27.04	1.73	0.0	0.0	0.0	0.0
	1017	1029	0.03244	0.14188	0.02161	149.0	0.0	0.0	0	0	1	-60.0001403060998	60.0001403060998	39.0	-24.87	-38.31	25.75	0.0	0.0	0.0	0.0
	1037	1017	0.00752	0.03352	0.00491	221.0	0.0	0.0	0	0	1	-60.0001403060998	60.0001403060998	-58.96	-3.95	59.24	4.69	0.0	0.0	0.0	0.0
	1047	1017	0.036	0.156	0.024	150.0	0.0	0.0	0	0	1	-60.0001403060998	60.0001403060998	92.58	-2.48	-89.54	13.25	0.0	0.0	0.0	0.0
	1024	1018	0.01094	0.06572	0.00892	98.0	0.0	0.0	0	0	1	-60.0001403060998	60.0001403060998	27.43	-2.51	-27.35	2.13	0.0	0.0	0.0	0.0
	1019	1040	0.04978	0.20651	0.03504	149.0	0.0	0.0	0	0	1	-60.0001403060998	60.0001403060998	-14.790000000000001	7.2700000000000005	14.93	-10.18	0.0	0.0	0.0	0.0
	1019	1045	0.01522	0.0372	0.00487	221.0	0.0	0.0	0	0	1	-60.0001403060998	60.0001403060998	106.12000000000002	16.59	-104.39	-12.839999999999998	0.0	0.0	0.0	0.0
	1019	1071	0.0044	0.028	0.0054	225.0	0.0	0.0	0	0	1	-60.0001403060998	60.0001403060998	-44.17	51.96999999999999	44.37	-51.22	0.0	0.0	0.0	0.0
	1019	1071	0.0044	0.028	0.0054	225.0	0.0	0.0	0	0	1	-60.0001403060998	60.0001403060998	44.37	-51.22	-44.17	51.96999999999999	0.0	0.0	0.0	0.0
	1019	1084	0.03	0.16	0.025	220.00000000000003	0.0	0.0	0	0	1	-60.0001403060998	60.0001403060998	-64.78	-0.04	66.02	4.05	0.0	0.0	0.0	0.0
	1021	1020	0.00327	0.07812	0.0	250.0	0.0	0.0	1.0	0.0	1	-60.0001403060998	60.0001403060998	149.63	-28.73	-148.88	46.74	0.0	0.0	0.0	0.0
	1025	1020	0.00828	0.03434	0.00583	149.0	0.0	0.0	0	0	1	-60.0001403060998	60.0001403060998	49.32	-27.35	-49.07	27.77	0.0	0.0	0.0	0.0
	1084	1020	0.01056	0.06337	0.0086	221.0	0.0	0.0	0	0	1	-60.0001403060998	60.0001403060998	-33.71	10.1	33.84	-10.27	0.0	0.0	0.0	0.0
	1020	3059	0.0189	0.06	0.006	300.0	0.0	0.0	0	0	1	-60.0001403060998	60.0001403060998	62.41	3.72	-61.71	-2.12	0.0	0.0	0.0	0.0
	1020	3130	0.00996	0.06938	0.01134	221.0	0.0	0.0	0	0	1	-60.0001403060998	60.0001403060998	101.70000000000002	13.059999999999999	-100.71	-7.32	0.0	0.0	0.0	0.0
	1023	1022	0.00535	0.11733	0.0	250.0	0.0	0.0	1.0	0.0	1	-60.0001403060998	60.0001403060998	135.0	0.04	-134.04	20.92	0.0	0.0	0.0	0.0
	1022	1028	0.01433	0.09253	0.01765	221.0	0.0	0.0	0	0	1	-60.0001403060998	60.0001403060998	35.11	-8.43	-34.93	7.77	0.0	0.0	0.0	0.0
	1022	1028	0.01433	0.09253	0.01765	221.0	0.0	0.0	0	0	1	-60.0001403060998	60.0001403060998	35.11	-8.43	-34.93	7.77	0.0	0.0	0.0	0.0
	1024	1090	0.01414	0.06303	0.00924	149.0	0.0	0.0	0	0	1	-60.0001403060998	60.0001403060998	-90.47	-15.35	91.67	19.75	0.0	0.0	0.0	0.0
	1026	1025	0.0042	0.18046	0.0	200.0	0.0	0.0	1.0	0.0	1	-60.0001403060998	60.0001403060998	93.15	-6.81	-92.78	22.55	0.0	0.0	0.0	0.0
	1027	1045	0.02505	0.10957	0.01669	221.0	0.0	0.0	0	0	1	-60.0001403060998	60.0001403060998	-17.11	30.680000000000003	17.42	-30.98	0.0	0.0	0.0	0.0
	1056	1027	0.03121	0.0763	0.00999	250.0	0.0	0.0	0	0	1	-60.0001403060998	60.0001403060998	86.34	-13.600000000000001	-84.1	18.03	0.0	0.0	0.0	0.0
	1028	3109	0.00428	0.01875	0.00286	250.0	0.0	0.0	0	0	1	-60.0001403060998	60.0001403060998	59.85	-18.38	-59.69	18.79	0.0	0.0	0.0	0.0
	1029	1056	0.02054	0.11733	0.01763	221.0	0.0	0.0	0	0	1	-60.0001403060998	60.0001403060998	-44.88	-8.44	45.3	8.98	0.0	0.0	0.0	0.0
	1030	1038	0.07404	0.42285	0.06354	98.0	0.0	0.0	0	0	1	-60.0001403060998	60.0001403060998	-24.16	1.72	24.59	-5.83	0.0	0.0	0.0	0.0
	1083	1030	0.06537	0.37334	0.0561	98.0	0.0	0.0	0	0	1	-60.0001403060998	60.0001403060998	17.05	-4.15	-16.87	-0.65	0.0	0.0	0.0	0.0
	1033	1032	0.00283	0.06758	0.0	170.0	0.0	0.0	1.0	0.0	1	-60.0001403060998	60.0001403060998	-119.36	41.49	119.78999999999999	-31.290000000000003	0.0	0.0	0.0	0.0
	1032	1036	0.01956	0.11746	0.01594	98.0	0.0	0.0	0	0	1	-60.0001403060998	60.0001403060998	6.45	3.66	-6.4399999999999995	-5.2	0.0	0.0	0.0	0.0
	1038	1032	0.045	0.11	0.015	155.0	0.0	0.0	0	0	1	-60.0001403060998	60.0001403060998	69.82	-14.48	-67.64	18.29	0.0	0.0	0.0	0.0
	1033	1081	0.003	0.031	0.059	548.0	0.0	0.0	0	0	1	-60.0001403060998	60.0001403060998	131.38	-18.58	-130.88	17.46	0.0	0.0	0.0	0.0
	1033	3050	0.0139	0.136	0.262	647.0	0.0	0.0	0	0	1	-60.0001403060998	60.0001403060998	196.48	-10.06	-191.41	31.97	0.0	0.0	0.0	0.0
	1035	1034	0.00438	0.08496	0.0	130.0	0.0	0.0	1.0	0.0	1	-60.0001403060998	60.0001403060998	67.5	-9.36	-67.3	13.3	0.0	0.0	0.0	0.0
	1067	1034	0.00795	0.04771	0.00647	98.0	0.0	0.0	0	0	1	-60.0001403060998	60.0001403060998	-52.959999999999994	-0.33	53.18000000000001	1.01	0.0	0.0	0.0	0.0
	1088	1036	0.02065	0.11793	0.01772	98.0	0.0	0.0	0	0	1	-60.0001403060998	60.0001403060998	7.17	-3.05	-7.16	1.35	0.0	0.0	0.0	0.0
	1037	1071	0.00669	0.04319	0.00824	300.0	0.0	0.0	0	0	1	-60.0001403060998	60.0001403060998	-43.27	-25.019999999999996	43.45	25.319999999999997	0.0	0.0	0.0	0.0
	1039	1038	0.00201	0.08591	0.0	200.0	0.0	0.0	1.0	0.0	1	-60.0001403060998	60.0001403060998	110.63000000000001	-21.01	-110.38	31.900000000000002	0.0	0.0	0.0	0.0
	1082	1038	0.01115	0.04969	0.00729	149.0	0.0	0.0	0	0	1	-60.0001403060998	60.0001403060998	64.37	-6.81	-63.93	8.03	0.0	0.0	0.0	0.0
	1083	1038	0.01	0.05	0.007	221.0	0.0	0.0	0	0	1	-60.0001403060998	60.0001403060998	-79.24	22.13	79.88	-19.62	0.0	0.0	0.0	0.0
	1040	1090	0.02991	0.13329	0.01955	149.0	0.0	0.0	0	0	1	-60.0001403060998	60.0001403060998	-59.29	-2.39	60.35	5.12	0.0	0.0	0.0	0.0
	1042	1041	0.00419	0.11123	0.0	145.0	0.0	0.0	1.0	0.0	1	-60.0001403060998	60.0001403060998	0.0	0.0	0.0	0.0	0.0	0.0	0.0	0.0
	1043	1041	0.003	0.12844	0.0	95.0	0.0	0.0	1.0	0.0	1	-60.0001403060998	60.0001403060998	44.1	-3.7599999999999993	-44.04	6.280000000000001	0.0	0.0	0.0	0.0
	1065	1041	0.00386	0.02203	0.00331	98.0	0.0	0.0	0	0	1	-60.0001403060998	60.0001403060998	13.13	10.51	-13.119999999999997	-10.78	0.0	0.0	0.0	0.0
	1041	1067	0.00393	0.01722	0.00262	149.0	0.0	0.0	0	0	1	-60.0001403060998	60.0001403060998	57.16	4.5	-57.03	-4.21	0.0	0.0	0.0	0.0
	1044	3019	0.03857	0.17192	0.02521	149.0	0.0	0.0	0	0	1	-60.0001403060998	60.0001403060998	46.54	-17.91	-45.63	19.33	0.0	0.0	0.0	0.0
	3130	1044	0.02731	0.19029	0.03111	221.0	0.0	0.0	0	0	1	-60.0001403060998	60.0001403060998	62.28	-9.6	-61.22	13.750000000000002	0.0	0.0	0.0	0.0
	1045	1064	0.00545	0.03794	0.0062	221.0	0.0	0.0	0	0	1	-60.0001403060998	60.0001403060998	-11.59	15.9	11.61	-16.34	0.0	0.0	0.0	0.0
	1087	1046	0.03262	0.14269	0.02173	149.0	0.0	0.0	0	0	1	-60.0001403060998	60.0001403060998	79.54	-13.58	-77.54	20.0	0.0	0.0	0.0	0.0
	1046	3009	0.05654	0.23454	0.0398	149.0	0.0	0.0	0	0	1	-60.0001403060998	60.0001403060998	66.46	-10.45	-64.06	16.21	0.0	0.0	0.0	0.0
	1048	1047	0.00335	0.06576	0.0	390.0	0.0	0.0	1.0	0.0	1	-60.0001403060998	60.0001403060998	0.0	0.0	0.0	0.0	0.0	0.0	0.0	0.0
	1049	1047	0.00276	0.11783	0.0	390.0	0.0	0.0	1.0	0.0	1	-60.0001403060998	60.0001403060998	0.0	0.0	0.0	0.0	0.0	0.0	0.0	0.0
	1050	1047	0.00313	0.09941	0.0	124.0	0.0	0.0	1.0	0.0	1	-60.0001403060998	60.0001403060998	89.4	-6.97	-89.15	14.96	0.0	0.0	0.0	0.0
	1051	1047	0.0056	0.1283	0.0	117.0	0.0	0.0	1.0	0.0	1	-60.0001403060998	60.0001403060998	89.4	-5.07	-88.95	15.36	0.0	0.0	0.0	0.0
	1052	1047	0.00368	0.0826	0.0	110.00000000000001	0.0	0.0	1.0	0.0	1	-60.0001403060998	60.0001403060998	89.4	-9.92	-89.1	16.6	0.0	0.0	0.0	0.0
	1053	1047	0.0023	0.08808	0.0	250.0	0.0	0.0	1.0	0.0	1	-60.0001403060998	60.0001403060998	-78.86	25.16	79.01	-19.42	0.0	0.0	0.0	0.0
	1047	1085	0.00947	0.06117	0.01167	221.0	0.0	0.0	0	0	1	-60.0001403060998	60.0001403060998	56.79	-13.350000000000001	-56.48	14.2	0.0	0.0	0.0	0.0
	1053	1081	0.003	0.03	0.06	548.0	0.0	0.0	0	0	1	-60.0001403060998	60.0001403060998	78.86	-25.16	-78.67	20.73	0.0	0.0	0.0	0.0
	1054	1056	0.02202	0.09633	0.01467	149.0	0.0	0.0	0	0	1	-60.0001403060998	60.0001403060998	-21.15	-12.64	21.28	11.66	0.0	0.0	0.0	0.0
	1089	1054	0.08737	0.21357	0.02796	98.0	0.0	0.0	0	0	1	-60.0001403060998	60.0001403060998	-6.05	-10.92	6.16	8.39	0.0	0.0	0.0	0.0
	1055	1089	0.04982	0.12179	0.01595	98.0	0.0	0.0	0	0	1	-60.0001403060998	60.0001403060998	35.17	0.49	-34.56	-0.59	0.0	0.0	0.0	0.0
	1057	1056	0.00315	0.1312	0.0	160.0	0.0	0.0	1.0	0.0	1	-60.0001403060998	60.0001403060998	0.0	0.0	0.0	0.0	0.0	0.0	0.0	0.0
	1056	1061	0.02267	0.12946	0.01945	150.0	0.0	0.0	0	0	1	-60.0001403060998	60.0001403060998	-61.85000000000001	26.46	62.83	-22.9	0.0	0.0	0.0	0.0
	1056	1065	0.02269	0.12962	0.01948	250.0	0.0	0.0	0	0	1	-60.0001403060998	60.0001403060998	-91.06	38.44	93.17	-28.43	0.0	0.0	0.0	0.0
	1059	1058	0.02655	0.46187	0.0	33.0	0.0	0.0	1.0	0.0	1	-60.0001403060998	60.0001403060998	0.0	0.0	0.0	0.0	0.0	0.0	0.0	0.0
	1060	1058	0.00894	0.38854	0.0	27.0	0.0	0.0	1.0	0.0	1	-60.0001403060998	60.0001403060998	0.0	0.0	0.0	0.0	0.0	0.0	0.0	0.0
	1069	1058	0.0074	0.05155	0.00843	221.0	0.0	0.0	0	0	1	-60.0001403060998	60.0001403060998	84.55	-7.739999999999999	-84.05	10.37	0.0	0.0	0.0	0.0
	1069	1058	0.0074	0.05155	0.00843	221.0	0.0	0.0	0	0	1	-60.0001403060998	60.0001403060998	84.55	-7.739999999999999	-84.05	10.37	0.0	0.0	0.0	0.0
	1058	1087	0.01573	0.10956	0.01791	221.0	0.0	0.0	0	0	1	-60.0001403060998	60.0001403060998	77.32	-12.28	-76.41	16.74	0.0	0.0	0.0	0.0
	1058	1087	0.01573	0.10956	0.01791	221.0	0.0	0.0	0	0	1	-60.0001403060998	60.0001403060998	77.32	-12.28	-76.41	16.74	0.0	0.0	0.0	0.0
	1062	1061	0.0163	0.31787	0.0	28.999999999999996	0.0	0.0	1.0	0.0	1	-60.0001403060998	60.0001403060998	0.0	0.0	0.0	0.0	0.0	0.0	0.0	0.0
	1063	1061	0.00567	0.10409	0.0	260.0	0.0	0.0	1.0	0.0	1	-60.0001403060998	60.0001403060998	0.0	0.0	0.0	0.0	0.0	0.0	0.0	0.0
	1061	3042	0.054	0.18	0.028	221.0	0.0	0.0	0	0	1	-60.0001403060998	60.0001403060998	13.930000000000001	-3.62	-13.83	1.11	0.0	0.0	0.0	0.0
	1066	1065	0.00508	0.12315	0.0	200.0	0.0	0.0	1.0	0.0	1	-60.0001403060998	60.0001403060998	106.88	-3.83	-106.3	17.92	0.0	0.0	0.0	0.0
	1088	1068	0.02962	0.16921	0.02543	98.0	0.0	0.0	0	0	1	-60.0001403060998	60.0001403060998	49.08	-0.43	-48.37	2.0	0.0	0.0	0.0	0.0
	1070	1069	0.00297	0.07	0.0	220.00000000000003	0.0	0.0	1.0	0.0	1	-60.0001403060998	60.0001403060998	120.38	17.67	-119.97	-8.09	0.0	0.0	0.0	0.0
	1082	1069	0.02137	0.0952	0.01396	149.0	0.0	0.0	0	0	1	-60.0001403060998	60.0001403060998	48.13	-14.790000000000001	-47.62	15.61	0.0	0.0	0.0	0.0
	1072	1071	0.00529	0.08551	0.0	240.0	0.0	0.0	1.0	0.0	1	-60.0001403060998	60.0001403060998	192.13	20.93	-190.19	10.38	0.0	0.0	0.0	0.0
	1073	1071	0.00499	0.14254	0.0	240.0	0.0	0.0	1.0	0.0	1	-60.0001403060998	60.0001403060998	192.13	29.98	-190.28	22.86	0.0	0.0	0.0	0.0
	1074	1071	0.00575	0.12453	0.0	240.0	0.0	0.0	1.0	0.0	1	-60.0001403060998	60.0001403060998	192.13	25.86	-190.01	20.02	0.0	0.0	0.0	0.0
	1075	1071	0.00373	0.09967	0.0	240.0	0.0	0.0	1.0	0.0	1	-60.0001403060998	60.0001403060998	192.13	25.86	-190.76	10.86	0.0	0.0	0.0	0.0
	1076	1071	0.00141	0.04937	0.0	229.99999999999997	0.0	0.0	1.0	0.0	1	-60.0001403060998	60.0001403060998	0.0	0.0	0.0	0.0	0.0	0.0	0.0	0.0
	1077	1071	0.00641	0.12047	0.0	229.99999999999997	0.0	0.0	1.0	0.0	1	-60.0001403060998	60.0001403060998	0.0	0.0	0.0	0.0	0.0	0.0	0.0	0.0
	1078	1071	0.00533	0.19087	0.0	137.0	0.0	0.0	1.0	0.0	1	-60.0001403060998	60.0001403060998	95.5	13.71	-95.01	3.71	0.0	0.0	0.0	0.0
	1079	1071	0.00013	0.046	0.0	2000.0	0.0	0.0	1.0	0.0	1	-60.0001403060998	60.0001403060998	-659.62	209.13999999999996	660.19	-6.78	0.0	0.0	0.0	0.0
	1080	1071	0.01206	0.20208	0.0	136.0	0.0	0.0	1.0	0.0	1	-60.0001403060998	60.0001403060998	95.5	10.71	-94.41	7.580000000000001	0.0	0.0	0.0	0.0
	1081	1071	0.00167	0.0665	0.0	350.0	0.0	0.0	1.0	0.0	1	-60.0001403060998	60.0001403060998	90.58	53.87	-90.4	-46.91	0.0	0.0	0.0	0.0
	3048	1079	0.0013	0.015	1.02	2300.0	0.0	0.0	0	0	1	-60.0001403060998	60.0001403060998	-255.23	-53.510000000000005	256.01	-48.09	0.0	0.0	0.0	0.0
	3048	1079	0.0013	0.015	1.02	2300.0	0.0	0.0	0	0	1	-60.0001403060998	60.0001403060998	-255.23	-53.510000000000005	256.01	-48.09	0.0	0.0	0.0	0.0
	1079	5120	0.003	0.03	2.05	2300.0	0.0	0.0	0	0	1	-60.0001403060998	60.0001403060998	243.08999999999997	-123.56	-241.46	-83.0	0.0	0.0	0.0	0.0
	1081	3058	0.0091	0.089	0.171	548.0	0.0	0.0	0	0	1	-60.0001403060998	60.0001403060998	118.97	-20.53	-117.75	14.29	0.0	0.0	0.0	0.0
	1084	3130	0.02049	0.09131	0.01339	221.0	0.0	0.0	0	0	1	-60.0001403060998	60.0001403060998	54.32	10.44	-53.72	-9.19	0.0	0.0	0.0	0.0
	1085	1086	0.03392	0.14838	0.0226	149.0	0.0	0.0	0	0	1	-60.0001403060998	60.0001403060998	24.5	-11.04	-24.27	9.73	0.0	0.0	0.0	0.0
	1090	1085	0.02018	0.13786	0.02346	221.0	0.0	0.0	0	0	1	-60.0001403060998	60.0001403060998	-10.65	7.01	10.68	-9.19	0.0	0.0	0.0	0.0
	2029	1091	0.0389	0.17144	0.0798	187.0	0.0	0.0	0	0	1	-60.0001403060998	60.0001403060998	-14.42	-3.65	14.499999999999998	-4.42	0.0	0.0	0.0	0.0
	1091	2048	0.02193	0.09667	0.045	187.0	0.0	0.0	0	0	1	-60.0001403060998	60.0001403060998	-10.94	-0.16	10.96	-4.5	0.0	0.0	0.0	0.0
	2098	1091	0.00554	0.02443	0.01137	187.0	0.0	0.0	0	0	1	-60.0001403060998	60.0001403060998	15.190000000000001	-2.43	-15.18	1.28	0.0	0.0	0.0	0.0
	2022	2001	0.00839	0.03697	0.01721	187.0	0.0	0.0	0	0	1	-60.0001403060998	60.0001403060998	65.17	7.17	-64.82	-7.37	0.0	0.0	0.0	0.0
	2027	2001	0.00955	0.04062	0.02032	187.0	0.0	0.0	0	0	1	-60.0001403060998	60.0001403060998	-16.43	4.39	16.46	-6.329999999999999	0.0	0.0	0.0	0.0
	2003	2002	0.0003	0.01986	0.0	981.0	0.0	0.0	1.0	0.0	1	-60.0001403060998	60.0001403060998	-199.47	1.03	199.58	6.63	0.0	0.0	0.0	0.0
...